

        *** GPGPU-Sim Simulator Version 4.0.0  [build gpgpu-sim_git-commit-90ec3399763d7c8512cfe7dc193473086c38ca38_modified_0.0] ***


GPGPU-Sim PTX: simulation mode 0 (can change with PTX_SIM_MODE_FUNC environment variable:
               1=functional simulation only, 0=detailed performance simulator)
GPGPU-Sim PTX: overriding embedded ptx with ptx file (PTX_SIM_USE_PTX_FILE is set)
GPGPU-Sim: Configuration options:

-save_embedded_ptx                      0 # saves ptx files embedded in binary as <n>.ptx
-keep                                   0 # keep intermediate files created by GPGPU-Sim when interfacing with external programs
-gpgpu_ptx_save_converted_ptxplus                    0 # Saved converted ptxplus to a file
-gpgpu_occupancy_sm_number                   20 # The SM number to pass to ptxas when getting register usage for computing GPU occupancy. This parameter is required in the config.
-ptx_opcode_latency_int      4,13,4,5,145,32 # Opcode latencies for integers <ADD,MAX,MUL,MAD,DIV,SHFL>Default 1,1,19,25,145,32
-ptx_opcode_latency_fp          4,13,4,5,39 # Opcode latencies for single precision floating points <ADD,MAX,MUL,MAD,DIV>Default 1,1,1,1,30
-ptx_opcode_latency_dp         8,19,8,8,330 # Opcode latencies for double precision floating points <ADD,MAX,MUL,MAD,DIV>Default 8,8,8,8,335
-ptx_opcode_latency_sfu                    8 # Opcode latencies for SFU instructionsDefault 8
-ptx_opcode_latency_tesnor                   64 # Opcode latencies for Tensor instructionsDefault 64
-ptx_opcode_initiation_int          1,2,2,1,8,4 # Opcode initiation intervals for integers <ADD,MAX,MUL,MAD,DIV,SHFL>Default 1,1,4,4,32,4
-ptx_opcode_initiation_fp            1,2,1,1,4 # Opcode initiation intervals for single precision floating points <ADD,MAX,MUL,MAD,DIV>Default 1,1,1,1,5
-ptx_opcode_initiation_dp         8,16,8,8,130 # Opcode initiation intervals for double precision floating points <ADD,MAX,MUL,MAD,DIV>Default 8,8,8,8,130
-ptx_opcode_initiation_sfu                    8 # Opcode initiation intervals for sfu instructionsDefault 8
-ptx_opcode_initiation_tensor                   64 # Opcode initiation intervals for tensor instructionsDefault 64
-cdp_latency         7200,8000,100,12000,1600 # CDP API latency <cudaStreamCreateWithFlags, cudaGetParameterBufferV2_init_perWarp, cudaGetParameterBufferV2_perKernel, cudaLaunchDeviceV2_init_perWarp, cudaLaunchDevicV2_perKernel>Default 7200,8000,100,12000,1600
-network_mode                           1 # Interconnection network mode
-inter_config_file   config_fermi_islip.icnt # Interconnection network config file
-icnt_in_buffer_limit                   64 # in_buffer_limit
-icnt_out_buffer_limit                   64 # out_buffer_limit
-icnt_subnets                           2 # subnets
-icnt_arbiter_algo                      1 # arbiter_algo
-icnt_verbose                           0 # inct_verbose
-icnt_grant_cycles                      1 # grant_cycles
-gpgpu_ptx_use_cuobjdump                    1 # Use cuobjdump to extract ptx and sass from binaries
-gpgpu_experimental_lib_support                    0 # Try to extract code from cuda libraries [Broken because of unknown cudaGetExportTable]
-checkpoint_option                      0 #  checkpointing flag (0 = no checkpoint)
-checkpoint_kernel                      1 #  checkpointing during execution of which kernel (1- 1st kernel)
-checkpoint_CTA                         0 #  checkpointing after # of CTA (< less than total CTA)
-resume_option                          0 #  resume flag (0 = no resume)
-resume_kernel                          0 #  Resume from which kernel (1= 1st kernel)
-resume_CTA                             0 #  resume from which CTA 
-checkpoint_CTA_t                       0 #  resume from which CTA 
-checkpoint_insn_Y                      0 #  resume from which CTA 
-gpgpu_ptx_convert_to_ptxplus                    0 # Convert SASS (native ISA) to ptxplus and run ptxplus
-gpgpu_ptx_force_max_capability                   20 # Force maximum compute capability
-gpgpu_ptx_inst_debug_to_file                    0 # Dump executed instructions' debug information to file
-gpgpu_ptx_inst_debug_file       inst_debug.txt # Executed instructions' debug output file
-gpgpu_ptx_inst_debug_thread_uid                    1 # Thread UID for executed instructions' debug output
-gpgpu_simd_model                       1 # 1 = post-dominator
-gpgpu_shader_core_pipeline              1536:32 # shader core pipeline config, i.e., {<nthread>:<warpsize>}
-gpgpu_tex_cache:l1  N:4:128:24,L:R:m:N:L,T:128:4,128:2 # per-shader L1 texture cache  (READ-ONLY) config  {<nsets>:<bsize>:<assoc>,<rep>:<wr>:<alloc>:<wr_alloc>,<mshr>:<N>:<merge>,<mq>:<rf>}
-gpgpu_const_cache:l1 N:64:64:2,L:R:f:N:L,S:2:32,4 # per-shader L1 constant memory cache  (READ-ONLY) config  {<nsets>:<bsize>:<assoc>,<rep>:<wr>:<alloc>:<wr_alloc>,<mshr>:<N>:<merge>,<mq>} 
-gpgpu_cache:il1     N:4:128:4,L:R:f:N:L,S:2:32,4 # shader L1 instruction cache config  {<nsets>:<bsize>:<assoc>,<rep>:<wr>:<alloc>:<wr_alloc>,<mshr>:<N>:<merge>,<mq>} 
-gpgpu_cache:dl1     N:32:128:4,L:L:m:N:H,S:64:8,8 # per-shader L1 data cache config  {<nsets>:<bsize>:<assoc>,<rep>:<wr>:<alloc>:<wr_alloc>,<mshr>:<N>:<merge>,<mq> | none}
-gpgpu_l1_banks                         1 # The number of L1 cache banks
-gpgpu_l1_banks_byte_interleaving                   32 # l1 banks byte interleaving granularity
-gpgpu_l1_banks_hashing_function                    0 # l1 banks hashing function
-gpgpu_l1_latency                      35 # L1 Hit Latency
-gpgpu_smem_latency                    26 # smem Latency
-gpgpu_cache:dl1PrefL1                 none # per-shader L1 data cache config  {<nsets>:<bsize>:<assoc>,<rep>:<wr>:<alloc>:<wr_alloc>,<mshr>:<N>:<merge>,<mq> | none}
-gpgpu_cache:dl1PrefShared                 none # per-shader L1 data cache config  {<nsets>:<bsize>:<assoc>,<rep>:<wr>:<alloc>:<wr_alloc>,<mshr>:<N>:<merge>,<mq> | none}
-gpgpu_gmem_skip_L1D                    0 # global memory access skip L1D cache (implements -Xptxas -dlcm=cg, default=no skip)
-gpgpu_perfect_mem                      0 # enable perfect memory mode (no cache miss)
-n_regfile_gating_group                    4 # group of lanes that should be read/written together)
-gpgpu_clock_gated_reg_file                    0 # enable clock gated reg file for power calculations
-gpgpu_clock_gated_lanes                    0 # enable clock gated lanes for power calculations
-gpgpu_shader_registers                32768 # Number of registers per shader core. Limits number of concurrent CTAs. (default 8192)
-gpgpu_registers_per_block                 8192 # Maximum number of registers per CTA. (default 8192)
-gpgpu_ignore_resources_limitation                    0 # gpgpu_ignore_resources_limitation (default 0)
-gpgpu_shader_cta                       8 # Maximum number of concurrent CTAs in shader (default 8)
-gpgpu_num_cta_barriers                   16 # Maximum number of named barriers per CTA (default 16)
-gpgpu_n_clusters                      15 # number of processing clusters
-gpgpu_n_cores_per_cluster                    1 # number of simd cores per cluster
-gpgpu_n_cluster_ejection_buffer_size                   32 # number of packets in ejection buffer
-gpgpu_n_ldst_response_buffer_size                    2 # number of response packets in ld/st unit ejection buffer
-gpgpu_shmem_per_block                49152 # Size of shared memory per thread block or CTA (default 48kB)
-gpgpu_shmem_size                   49152 # Size of shared memory per shader core (default 16kB)
-gpgpu_adaptive_cache_config                    0 # adaptive_cache_config
-gpgpu_shmem_sizeDefault                49152 # Size of shared memory per shader core (default 16kB)
-gpgpu_shmem_size_PrefL1                16384 # Size of shared memory per shader core (default 16kB)
-gpgpu_shmem_size_PrefShared                16384 # Size of shared memory per shader core (default 16kB)
-gpgpu_shmem_num_banks                   32 # Number of banks in the shared memory in each shader core (default 16)
-gpgpu_shmem_limited_broadcast                    0 # Limit shared memory to do one broadcast per cycle (default on)
-gpgpu_shmem_warp_parts                    1 # Number of portions a warp is divided into for shared memory bank conflict check 
-gpgpu_mem_unit_ports                    1 # The number of memory transactions allowed per core cycle
-gpgpu_shmem_warp_parts                    1 # Number of portions a warp is divided into for shared memory bank conflict check 
-gpgpu_warpdistro_shader                   -1 # Specify which shader core to collect the warp size distribution from
-gpgpu_warp_issue_shader                    0 # Specify which shader core to collect the warp issue distribution from
-gpgpu_local_mem_map                    1 # Mapping from local memory space address to simulated GPU physical address space (default = enabled)
-gpgpu_num_reg_banks                   16 # Number of register banks (default = 8)
-gpgpu_reg_bank_use_warp_id                    0 # Use warp ID in mapping registers to banks (default = off)
-gpgpu_sub_core_model                    0 # Sub Core Volta/Pascal model (default = off)
-gpgpu_enable_specialized_operand_collector                    1 # enable_specialized_operand_collector
-gpgpu_operand_collector_num_units_sp                    6 # number of collector units (default = 4)
-gpgpu_operand_collector_num_units_dp                    0 # number of collector units (default = 0)
-gpgpu_operand_collector_num_units_sfu                    8 # number of collector units (default = 4)
-gpgpu_operand_collector_num_units_int                    0 # number of collector units (default = 0)
-gpgpu_operand_collector_num_units_tensor_core                    4 # number of collector units (default = 4)
-gpgpu_operand_collector_num_units_mem                    2 # number of collector units (default = 2)
-gpgpu_operand_collector_num_units_gen                    0 # number of collector units (default = 0)
-gpgpu_operand_collector_num_in_ports_sp                    2 # number of collector unit in ports (default = 1)
-gpgpu_operand_collector_num_in_ports_dp                    0 # number of collector unit in ports (default = 0)
-gpgpu_operand_collector_num_in_ports_sfu                    1 # number of collector unit in ports (default = 1)
-gpgpu_operand_collector_num_in_ports_int                    0 # number of collector unit in ports (default = 0)
-gpgpu_operand_collector_num_in_ports_tensor_core                    1 # number of collector unit in ports (default = 1)
-gpgpu_operand_collector_num_in_ports_mem                    1 # number of collector unit in ports (default = 1)
-gpgpu_operand_collector_num_in_ports_gen                    0 # number of collector unit in ports (default = 0)
-gpgpu_operand_collector_num_out_ports_sp                    2 # number of collector unit in ports (default = 1)
-gpgpu_operand_collector_num_out_ports_dp                    0 # number of collector unit in ports (default = 0)
-gpgpu_operand_collector_num_out_ports_sfu                    1 # number of collector unit in ports (default = 1)
-gpgpu_operand_collector_num_out_ports_int                    0 # number of collector unit in ports (default = 0)
-gpgpu_operand_collector_num_out_ports_tensor_core                    1 # number of collector unit in ports (default = 1)
-gpgpu_operand_collector_num_out_ports_mem                    1 # number of collector unit in ports (default = 1)
-gpgpu_operand_collector_num_out_ports_gen                    0 # number of collector unit in ports (default = 0)
-gpgpu_coalesce_arch                   20 # Coalescing arch (GT200 = 13, Fermi = 20)
-gpgpu_num_sched_per_core                    2 # Number of warp schedulers per core
-gpgpu_max_insn_issue_per_warp                    1 # Max number of instructions that can be issued per warp in one cycle by scheduler (either 1 or 2)
-gpgpu_dual_issue_diff_exec_units                    1 # should dual issue use two different execution unit resources (Default = 1)
-gpgpu_simt_core_sim_order                    1 # Select the simulation order of cores in a cluster (0=Fix, 1=Round-Robin)
-gpgpu_pipeline_widths 2,0,0,1,1,2,0,0,1,1,2 # Pipeline widths ID_OC_SP,ID_OC_DP,ID_OC_INT,ID_OC_SFU,ID_OC_MEM,OC_EX_SP,OC_EX_DP,OC_EX_INT,OC_EX_SFU,OC_EX_MEM,EX_WB,ID_OC_TENSOR_CORE,OC_EX_TENSOR_CORE
-gpgpu_tensor_core_avail                    0 # Tensor Core Available (default=0)
-gpgpu_num_sp_units                     2 # Number of SP units (default=1)
-gpgpu_num_dp_units                     0 # Number of DP units (default=0)
-gpgpu_num_int_units                    0 # Number of INT units (default=0)
-gpgpu_num_sfu_units                    1 # Number of SF units (default=1)
-gpgpu_num_tensor_core_units                    0 # Number of tensor_core units (default=1)
-gpgpu_num_mem_units                    1 # Number if ldst units (default=1) WARNING: not hooked up to anything
-gpgpu_scheduler                      gto # Scheduler configuration: < lrr | gto | two_level_active > If two_level_active:<num_active_warps>:<inner_prioritization>:<outer_prioritization>For complete list of prioritization values see shader.h enum scheduler_prioritization_typeDefault: gto
-gpgpu_concurrent_kernel_sm                    0 # Support concurrent kernels on a SM (default = disabled)
-gpgpu_perfect_inst_const_cache                    0 # perfect inst and const cache mode, so all inst and const hits in the cache(default = disabled)
-gpgpu_inst_fetch_throughput                    1 # the number of fetched intruction per warp each cycle
-gpgpu_reg_file_port_throughput                    1 # the number ports of the register file
-specialized_unit_1         0,4,4,4,4,BRA # specialized unit config {<enabled>,<num_units>:<latency>:<initiation>,<ID_OC_SPEC>:<OC_EX_SPEC>,<NAME>}
-specialized_unit_2         0,4,4,4,4,BRA # specialized unit config {<enabled>,<num_units>:<latency>:<initiation>,<ID_OC_SPEC>:<OC_EX_SPEC>,<NAME>}
-specialized_unit_3         0,4,4,4,4,BRA # specialized unit config {<enabled>,<num_units>:<latency>:<initiation>,<ID_OC_SPEC>:<OC_EX_SPEC>,<NAME>}
-specialized_unit_4         0,4,4,4,4,BRA # specialized unit config {<enabled>,<num_units>:<latency>:<initiation>,<ID_OC_SPEC>:<OC_EX_SPEC>,<NAME>}
-specialized_unit_5         0,4,4,4,4,BRA # specialized unit config {<enabled>,<num_units>:<latency>:<initiation>,<ID_OC_SPEC>:<OC_EX_SPEC>,<NAME>}
-specialized_unit_6         0,4,4,4,4,BRA # specialized unit config {<enabled>,<num_units>:<latency>:<initiation>,<ID_OC_SPEC>:<OC_EX_SPEC>,<NAME>}
-specialized_unit_7         0,4,4,4,4,BRA # specialized unit config {<enabled>,<num_units>:<latency>:<initiation>,<ID_OC_SPEC>:<OC_EX_SPEC>,<NAME>}
-specialized_unit_8         0,4,4,4,4,BRA # specialized unit config {<enabled>,<num_units>:<latency>:<initiation>,<ID_OC_SPEC>:<OC_EX_SPEC>,<NAME>}
-gpgpu_perf_sim_memcpy                    1 # Fill the L2 cache on memcpy
-gpgpu_simple_dram_model                    0 # simple_dram_model with fixed latency and BW
-gpgpu_dram_scheduler                    1 # 0 = fifo, 1 = FR-FCFS (defaul)
-gpgpu_dram_partition_queues          64:64:64:64 # i2$:$2d:d2$:$2i
-l2_ideal                               0 # Use a ideal L2 cache that always hit
-gpgpu_cache:dl2     S:64:128:8,L:B:m:L:L,A:256:4,4:0,32 # unified banked L2 data cache config  {<nsets>:<bsize>:<assoc>,<rep>:<wr>:<alloc>:<wr_alloc>,<mshr>:<N>:<merge>,<mq>}
-gpgpu_cache:dl2_texture_only                    0 # L2 cache used for texture only
-gpgpu_n_mem                            6 # number of memory modules (e.g. memory controllers) in gpu
-gpgpu_n_sub_partition_per_mchannel                    2 # number of memory subpartition in each memory module
-gpgpu_n_mem_per_ctrlr                    2 # number of memory chips per memory controller
-gpgpu_memlatency_stat                   14 # track and display latency statistics 0x2 enables MC, 0x4 enables queue logs
-gpgpu_frfcfs_dram_sched_queue_size                   64 # 0 = unlimited (default); # entries per chip
-gpgpu_dram_return_queue_size                  116 # 0 = unlimited (default); # entries per chip
-gpgpu_dram_buswidth                    4 # default = 4 bytes (8 bytes per cycle at DDR)
-gpgpu_dram_burst_length                    8 # Burst length of each DRAM request (default = 4 data bus cycle)
-dram_data_command_freq_ratio                    4 # Frequency ratio between DRAM data bus and command bus (default = 2 times, i.e. DDR)
-gpgpu_dram_timing_opt nbk=16:CCD=2:RRD=6:RCD=12:RAS=28:RP=12:RC=40: CL=12:WL=4:CDLR=5:WR=12:nbkgrp=4:CCDL=3:RTPL=2 # DRAM timing parameters = {nbk:tCCD:tRRD:tRCD:tRAS:tRP:tRC:CL:WL:tCDLR:tWR:nbkgrp:tCCDL:tRTPL}
-gpgpu_l2_rop_latency                  120 # ROP queue latency (default 85)
-dram_latency                         100 # DRAM latency (default 30)
-dram_dual_bus_interface                    0 # dual_bus_interface (default = 0) 
-dram_bnk_indexing_policy                    0 # dram_bnk_indexing_policy (0 = normal indexing, 1 = Xoring with the higher bits) (Default = 0)
-dram_bnkgrp_indexing_policy                    1 # dram_bnkgrp_indexing_policy (0 = take higher bits, 1 = take lower bits) (Default = 0)
-dram_seperate_write_queue_enable                    0 # Seperate_Write_Queue_Enable
-dram_write_queue_size             32:28:16 # Write_Queue_Size
-dram_elimnate_rw_turnaround                    0 # elimnate_rw_turnaround i.e set tWTR and tRTW = 0
-icnt_flit_size                        40 # icnt_flit_size
-gpgpu_mem_addr_mapping dramid@8;00000000.00000000.00000000.00000000.0000RRRR.RRRRRRRR.BBBCCCCB.CCSSSSSS # mapping memory address to dram model {dramid@<start bit>;<memory address map>}
-gpgpu_mem_addr_test                    0 # run sweep test to check address mapping for aliased address
-gpgpu_mem_address_mask                    1 # 0 = old addressing mask, 1 = new addressing mask, 2 = new add. mask + flipped bank sel and chip sel bits
-gpgpu_memory_partition_indexing                    0 # 0 = no indexing, 1 = bitwise xoring, 2 = IPoly, 3 = custom indexing
-gpuwattch_xml_file  gpuwattch_gtx480.xml # GPUWattch XML file
-power_simulation_enabled                    1 # Turn on power simulator (1=On, 0=Off)
-power_per_cycle_dump                    0 # Dump detailed power output each cycle
-power_trace_enabled                    0 # produce a file for the power trace (1=On, 0=Off)
-power_trace_zlevel                     6 # Compression level of the power trace output log (0=no comp, 9=highest)
-steady_power_levels_enabled                    0 # produce a file for the steady power levels (1=On, 0=Off)
-steady_state_definition                  8:4 # allowed deviation:number of samples
-gpgpu_max_cycle                        0 # terminates gpu simulation early (0 = no limit)
-gpgpu_max_insn                         0 # terminates gpu simulation early (0 = no limit)
-gpgpu_max_cta                          0 # terminates gpu simulation early (0 = no limit)
-gpgpu_max_completed_cta                    0 # terminates gpu simulation early (0 = no limit)
-gpgpu_runtime_stat                   500 # display runtime statistics such as dram utilization {<freq>:<flag>}
-liveness_message_freq                    1 # Minimum number of seconds between simulation liveness messages (0 = always print)
-gpgpu_compute_capability_major                    2 # Major compute capability version number
-gpgpu_compute_capability_minor                    0 # Minor compute capability version number
-gpgpu_flush_l1_cache                    1 # Flush L1 cache at the end of each kernel call
-gpgpu_flush_l2_cache                    0 # Flush L2 cache at the end of each kernel call
-gpgpu_deadlock_detect                    1 # Stop the simulation at deadlock (1=on (default), 0=off)
-gpgpu_ptx_instruction_classification                    0 # if enabled will classify ptx instruction types per kernel (Max 255 kernels now)
-gpgpu_ptx_sim_mode                     0 # Select between Performance (default) or Functional simulation (1)
-gpgpu_clock_domains 1000.0:1000.0:1000.0:924.0 # Clock Domain Frequencies in MhZ {<Core Clock>:<ICNT Clock>:<L2 Clock>:<DRAM Clock>}
-gpgpu_max_concurrent_kernel                    8 # maximum kernels that can run concurrently on GPU
-gpgpu_cflog_interval                    0 # Interval between each snapshot in control flow logger
-visualizer_enabled                     0 # Turn on visualizer output (1=On, 0=Off)
-visualizer_outputfile                 NULL # Specifies the output log file for visualizer
-visualizer_zlevel                      6 # Compression level of the visualizer output log (0=no comp, 9=highest)
-gpgpu_stack_size_limit                 1024 # GPU thread stack size
-gpgpu_heap_size_limit              8388608 # GPU malloc heap size 
-gpgpu_runtime_sync_depth_limit                    2 # GPU device runtime synchronize depth
-gpgpu_runtime_pending_launch_count_limit                 2048 # GPU device runtime pending launch count
-trace_enabled                          0 # Turn on traces
-trace_components                    none # comma seperated list of traces to enable. Complete list found in trace_streams.tup. Default none
-trace_sampling_core                    0 # The core which is printed using CORE_DPRINTF. Default 0
-trace_sampling_memory_partition                   -1 # The memory partition which is printed using MEMPART_DPRINTF. Default -1 (i.e. all)
-enable_ptx_file_line_stats                    1 # Turn on PTX source line statistic profiling. (1 = On)
-ptx_line_stats_filename gpgpu_inst_stats.txt # Output file for PTX source line statistics.
-gpgpu_kernel_launch_latency                    0 # Kernel launch latency in cycles. Default: 0
-gpgpu_cdp_enabled                      0 # Turn on CDP
-gpgpu_TB_launch_latency                    0 # thread block launch latency in cycles. Default: 0
DRAM Timing Options:
nbk                                    16 # number of banks
CCD                                     2 # column to column delay
RRD                                     6 # minimal delay between activation of rows in different banks
RCD                                    12 # row to column delay
RAS                                    28 # time needed to activate row
RP                                     12 # time needed to precharge (deactivate) row
RC                                     40 # row cycle time
CDLR                                    5 # switching from write to read (changes tWTR)
WR                                     12 # last data-in to row precharge
CL                                     12 # CAS latency
WL                                      4 # Write latency
nbkgrp                                  4 # number of bank groups
CCDL                                    3 # column to column delay between accesses to different bank groups
RTPL                                    2 # read to precharge delay between accesses to different bank groups
Total number of memory sub partition = 12
addr_dec_mask[CHIP]  = 0000000000000000 	high:64 low:0
addr_dec_mask[BK]    = 000000000000e100 	high:16 low:8
addr_dec_mask[ROW]   = 000000000fff0000 	high:28 low:16
addr_dec_mask[COL]   = 0000000000001eff 	high:13 low:0
addr_dec_mask[BURST] = 000000000000003f 	high:6 low:0
sub_partition_id_mask = 0000000000000100
GPGPU-Sim uArch: clock freqs: 1000000000.000000:1000000000.000000:1000000000.000000:924000000.000000
GPGPU-Sim uArch: clock periods: 0.00000000100000000000:0.00000000100000000000:0.00000000100000000000:0.00000000108225108225
*** Initializing Memory Statistics ***
GPGPU-Sim uArch: interconnect node map (shaderID+MemID to icntID)
GPGPU-Sim uArch: Memory nodes ID start from index: 15
GPGPU-Sim uArch:    0   1   2   3   4
GPGPU-Sim uArch:    5   6   7   8   9
GPGPU-Sim uArch:   10  11  12  13  14
GPGPU-Sim uArch:   15  16  17  18  19
GPGPU-Sim uArch:   20  21  22  23  24
GPGPU-Sim uArch:   25  26
GPGPU-Sim uArch: interconnect node reverse map (icntID to shaderID+MemID)
GPGPU-Sim uArch: Memory nodes start from ID: 15
GPGPU-Sim uArch:    0   1   2   3   4
GPGPU-Sim uArch:    5   6   7   8   9
GPGPU-Sim uArch:   10  11  12  13  14
GPGPU-Sim uArch:   15  16  17  18  19
GPGPU-Sim uArch:   20  21  22  23  24
GPGPU-Sim uArch:   25  26
2dfed8f4b02b3e27d54add6a6bde60e2  /home/minigrim0/Documents/Lab_2/power_sim/hotspot3d.gpu
Extracting PTX file and ptxas options    1: hotspot3d.1.sm_30.ptx -arch=sm_30
GPGPU-Sim uArch: performance model initialization complete.
self exe links to: /home/minigrim0/Documents/Lab_2/power_sim/hotspot3d.gpu
self exe links to: /home/minigrim0/Documents/Lab_2/power_sim/hotspot3d.gpu
10.0
GPGPU-Sim PTX: __cudaRegisterFatBinary, fat_cubin_handle = 1, filename=default
self exe links to: /home/minigrim0/Documents/Lab_2/power_sim/hotspot3d.gpu
Running md5sum using "md5sum /home/minigrim0/Documents/Lab_2/power_sim/hotspot3d.gpu "
self exe links to: /home/minigrim0/Documents/Lab_2/power_sim/hotspot3d.gpu
Extracting specific PTX file named hotspot3d.1.sm_30.ptx 
GPGPU-Sim PTX: __cudaRegisterFunction _Z11hotspotOpt1PfS_S_fiiifffffff : hostFun 0x0x55912bb90865, fat_cubin_handle = 1
GPGPU-Sim PTX: Parsing hotspot3d.1.sm_30.ptx
GPGPU-Sim PTX: instruction assembly for function '_Z11hotspotOpt1PfS_S_fiiifffffff'...   done.
GPGPU-Sim PTX: finished parsing EMBEDDED .ptx file hotspot3d.1.sm_30.ptx
GPGPU-Sim PTX: loading globals with explicit initializers... 
GPGPU-Sim PTX: finished loading globals (0 bytes total).
GPGPU-Sim PTX: loading constants with explicit initializers...  done.
GPGPU-Sim PTX: Loading PTXInfo from hotspot3d.1.sm_30.ptx
GPGPU-Sim PTX: Kernel '_Z11hotspotOpt1PfS_S_fiiifffffff' : regs=32, lmem=0, smem=0, cmem=388
GPGPU-Sim PTX: Setting up arguments for 8 bytes starting at 0x7ffc8b840368..
GPGPU-Sim PTX: Setting up arguments for 8 bytes starting at 0x7ffc8b840360..
GPGPU-Sim PTX: Setting up arguments for 8 bytes starting at 0x7ffc8b840358..
GPGPU-Sim PTX: Setting up arguments for 4 bytes starting at 0x7ffc8b840354..
GPGPU-Sim PTX: Setting up arguments for 4 bytes starting at 0x7ffc8b840350..
GPGPU-Sim PTX: Setting up arguments for 4 bytes starting at 0x7ffc8b84034c..
GPGPU-Sim PTX: Setting up arguments for 4 bytes starting at 0x7ffc8b840348..
GPGPU-Sim PTX: Setting up arguments for 4 bytes starting at 0x7ffc8b840344..
GPGPU-Sim PTX: Setting up arguments for 4 bytes starting at 0x7ffc8b840340..
GPGPU-Sim PTX: Setting up arguments for 4 bytes starting at 0x7ffc8b84033c..
GPGPU-Sim PTX: Setting up arguments for 4 bytes starting at 0x7ffc8b840338..
GPGPU-Sim PTX: Setting up arguments for 4 bytes starting at 0x7ffc8b840334..
GPGPU-Sim PTX: Setting up arguments for 4 bytes starting at 0x7ffc8b840330..
GPGPU-Sim PTX: Setting up arguments for 4 bytes starting at 0x7ffc8b84032c..

GPGPU-Sim PTX: cudaLaunch for 0x0x55912bb90865 (mode=performance simulation) on stream 0
GPGPU-Sim PTX: finding reconvergence points for '_Z11hotspotOpt1PfS_S_fiiifffffff'...
GPGPU-Sim PTX: Finding dominators for '_Z11hotspotOpt1PfS_S_fiiifffffff'...
GPGPU-Sim PTX: Finding immediate dominators for '_Z11hotspotOpt1PfS_S_fiiifffffff'...
GPGPU-Sim PTX: Finding postdominators for '_Z11hotspotOpt1PfS_S_fiiifffffff'...
GPGPU-Sim PTX: Finding immediate postdominators for '_Z11hotspotOpt1PfS_S_fiiifffffff'...
GPGPU-Sim PTX: pre-decoding instructions for '_Z11hotspotOpt1PfS_S_fiiifffffff'...
GPGPU-Sim PTX: reconvergence points for _Z11hotspotOpt1PfS_S_fiiifffffff...
GPGPU-Sim PTX:  1 (potential) branch divergence @  PC=0x290 (hotspot3d.1.sm_30.ptx:120) bra.uni BB0_1;
GPGPU-Sim PTX:    immediate post dominator      @  PC=0x3b0 (hotspot3d.1.sm_30.ptx:160) mov.f32 %f5, %f57;
GPGPU-Sim PTX:  2 (potential) branch divergence @  PC=0x408 (hotspot3d.1.sm_30.ptx:171) @%p7 bra BB0_3;
GPGPU-Sim PTX:    immediate post dominator      @  PC=0x410 (hotspot3d.1.sm_30.ptx:173) add.s32 %r60, %r43, %r17;
GPGPU-Sim PTX: ... end of reconvergence points for _Z11hotspotOpt1PfS_S_fiiifffffff
GPGPU-Sim PTX: ... done pre-decoding instructions for '_Z11hotspotOpt1PfS_S_fiiifffffff'.
GPGPU-Sim PTX: pushing kernel '_Z11hotspotOpt1PfS_S_fiiifffffff' to stream 0, gridDim= (8,128,1) blockDim = (64,4,1) 
FLUSH L1 Cache at configuration change between kernels
GPGPU-Sim uArch: Shader 0 bind to kernel 1 '_Z11hotspotOpt1PfS_S_fiiifffffff'
GPGPU-Sim uArch: CTA/core = 4, limited by: regs
GPGPU-Sim uArch: Shader 1 bind to kernel 1 '_Z11hotspotOpt1PfS_S_fiiifffffff'
GPGPU-Sim uArch: Shader 2 bind to kernel 1 '_Z11hotspotOpt1PfS_S_fiiifffffff'
GPGPU-Sim uArch: Shader 3 bind to kernel 1 '_Z11hotspotOpt1PfS_S_fiiifffffff'
GPGPU-Sim uArch: Shader 4 bind to kernel 1 '_Z11hotspotOpt1PfS_S_fiiifffffff'
GPGPU-Sim uArch: Shader 5 bind to kernel 1 '_Z11hotspotOpt1PfS_S_fiiifffffff'
GPGPU-Sim uArch: Shader 6 bind to kernel 1 '_Z11hotspotOpt1PfS_S_fiiifffffff'
GPGPU-Sim uArch: Shader 7 bind to kernel 1 '_Z11hotspotOpt1PfS_S_fiiifffffff'
GPGPU-Sim uArch: Shader 8 bind to kernel 1 '_Z11hotspotOpt1PfS_S_fiiifffffff'
GPGPU-Sim uArch: Shader 9 bind to kernel 1 '_Z11hotspotOpt1PfS_S_fiiifffffff'
GPGPU-Sim uArch: Shader 10 bind to kernel 1 '_Z11hotspotOpt1PfS_S_fiiifffffff'
GPGPU-Sim uArch: Shader 11 bind to kernel 1 '_Z11hotspotOpt1PfS_S_fiiifffffff'
GPGPU-Sim uArch: Shader 12 bind to kernel 1 '_Z11hotspotOpt1PfS_S_fiiifffffff'
GPGPU-Sim uArch: Shader 13 bind to kernel 1 '_Z11hotspotOpt1PfS_S_fiiifffffff'
GPGPU-Sim uArch: Shader 14 bind to kernel 1 '_Z11hotspotOpt1PfS_S_fiiifffffff'
Destroy streams for kernel 1: size 0
kernel_name = _Z11hotspotOpt1PfS_S_fiiifffffff 
kernel_launch_uid = 1 
gpu_sim_cycle = 288600
gpu_sim_insn = 104595456
gpu_ipc =     362.4236
gpu_tot_sim_cycle = 288600
gpu_tot_sim_insn = 104595456
gpu_tot_ipc =     362.4236
gpu_tot_issued_cta = 1024
gpu_occupancy = 60.3820% 
gpu_tot_occupancy = 60.3820% 
max_total_param_size = 0
gpu_stall_dramfull = 547
gpu_stall_icnt2sh    = 98
partiton_level_parallism =       1.2507
partiton_level_parallism_total  =       1.2507
partiton_level_parallism_util =       1.7093
partiton_level_parallism_util_total  =       1.7093
L2_BW  =     160.0865 GB/Sec
L2_BW_total  =     160.0865 GB/Sec
gpu_total_sim_rate=530941

========= Core cache stats =========
L1I_cache:
	L1I_total_cache_accesses = 1671168
	L1I_total_cache_misses = 3315
	L1I_total_cache_miss_rate = 0.0020
	L1I_total_cache_pending_hits = 0
	L1I_total_cache_reservation_fails = 0
L1C_cache:
	L1C_total_cache_accesses = 114688
	L1C_total_cache_misses = 867
	L1C_total_cache_miss_rate = 0.0076
	L1C_total_cache_pending_hits = 0
	L1C_total_cache_reservation_fails = 3650
L1T_cache:
	L1T_total_cache_accesses = 0
	L1T_total_cache_misses = 0
	L1T_total_cache_pending_hits = 0
	L1T_total_cache_reservation_fails = 0

Total_core_cache_stats:
	Total_core_cache_stats_breakdown[GLOBAL_ACC_R][HIT] = 169550
	Total_core_cache_stats_breakdown[GLOBAL_ACC_R][HIT_RESERVED] = 51302
	Total_core_cache_stats_breakdown[GLOBAL_ACC_R][MISS] = 295244
	Total_core_cache_stats_breakdown[GLOBAL_ACC_R][RESERVATION_FAIL] = 829804
	Total_core_cache_stats_breakdown[GLOBAL_ACC_R][SECTOR_MISS] = 0
	Total_core_cache_stats_breakdown[LOCAL_ACC_R][HIT] = 0
	Total_core_cache_stats_breakdown[LOCAL_ACC_R][HIT_RESERVED] = 0
	Total_core_cache_stats_breakdown[LOCAL_ACC_R][MISS] = 0
	Total_core_cache_stats_breakdown[LOCAL_ACC_R][RESERVATION_FAIL] = 0
	Total_core_cache_stats_breakdown[LOCAL_ACC_R][SECTOR_MISS] = 0
	Total_core_cache_stats_breakdown[CONST_ACC_R][HIT] = 113821
	Total_core_cache_stats_breakdown[CONST_ACC_R][HIT_RESERVED] = 0
	Total_core_cache_stats_breakdown[CONST_ACC_R][MISS] = 867
	Total_core_cache_stats_breakdown[CONST_ACC_R][RESERVATION_FAIL] = 3650
	Total_core_cache_stats_breakdown[CONST_ACC_R][SECTOR_MISS] = 0
	Total_core_cache_stats_breakdown[TEXTURE_ACC_R][HIT] = 0
	Total_core_cache_stats_breakdown[TEXTURE_ACC_R][HIT_RESERVED] = 0
	Total_core_cache_stats_breakdown[TEXTURE_ACC_R][MISS] = 0
	Total_core_cache_stats_breakdown[TEXTURE_ACC_R][RESERVATION_FAIL] = 0
	Total_core_cache_stats_breakdown[TEXTURE_ACC_R][SECTOR_MISS] = 0
	Total_core_cache_stats_breakdown[GLOBAL_ACC_W][HIT] = 0
	Total_core_cache_stats_breakdown[GLOBAL_ACC_W][HIT_RESERVED] = 0
	Total_core_cache_stats_breakdown[GLOBAL_ACC_W][MISS] = 65536
	Total_core_cache_stats_breakdown[GLOBAL_ACC_W][RESERVATION_FAIL] = 71
	Total_core_cache_stats_breakdown[GLOBAL_ACC_W][SECTOR_MISS] = 0
	Total_core_cache_stats_breakdown[LOCAL_ACC_W][HIT] = 0
	Total_core_cache_stats_breakdown[LOCAL_ACC_W][HIT_RESERVED] = 0
	Total_core_cache_stats_breakdown[LOCAL_ACC_W][MISS] = 0
	Total_core_cache_stats_breakdown[LOCAL_ACC_W][RESERVATION_FAIL] = 0
	Total_core_cache_stats_breakdown[LOCAL_ACC_W][SECTOR_MISS] = 0
	Total_core_cache_stats_breakdown[L1_WRBK_ACC][HIT] = 0
	Total_core_cache_stats_breakdown[L1_WRBK_ACC][HIT_RESERVED] = 0
	Total_core_cache_stats_breakdown[L1_WRBK_ACC][MISS] = 0
	Total_core_cache_stats_breakdown[L1_WRBK_ACC][RESERVATION_FAIL] = 0
	Total_core_cache_stats_breakdown[L1_WRBK_ACC][SECTOR_MISS] = 0
	Total_core_cache_stats_breakdown[L2_WRBK_ACC][HIT] = 0
	Total_core_cache_stats_breakdown[L2_WRBK_ACC][HIT_RESERVED] = 0
	Total_core_cache_stats_breakdown[L2_WRBK_ACC][MISS] = 0
	Total_core_cache_stats_breakdown[L2_WRBK_ACC][RESERVATION_FAIL] = 0
	Total_core_cache_stats_breakdown[L2_WRBK_ACC][SECTOR_MISS] = 0
	Total_core_cache_stats_breakdown[INST_ACC_R][HIT] = 1667853
	Total_core_cache_stats_breakdown[INST_ACC_R][HIT_RESERVED] = 0
	Total_core_cache_stats_breakdown[INST_ACC_R][MISS] = 3315
	Total_core_cache_stats_breakdown[INST_ACC_R][RESERVATION_FAIL] = 0
	Total_core_cache_stats_breakdown[INST_ACC_R][SECTOR_MISS] = 0
	Total_core_cache_stats_breakdown[L1_WR_ALLOC_R][HIT] = 0
	Total_core_cache_stats_breakdown[L1_WR_ALLOC_R][HIT_RESERVED] = 0
	Total_core_cache_stats_breakdown[L1_WR_ALLOC_R][MISS] = 0
	Total_core_cache_stats_breakdown[L1_WR_ALLOC_R][RESERVATION_FAIL] = 0
	Total_core_cache_stats_breakdown[L1_WR_ALLOC_R][SECTOR_MISS] = 0
	Total_core_cache_stats_breakdown[L2_WR_ALLOC_R][HIT] = 0
	Total_core_cache_stats_breakdown[L2_WR_ALLOC_R][HIT_RESERVED] = 0
	Total_core_cache_stats_breakdown[L2_WR_ALLOC_R][MISS] = 0
	Total_core_cache_stats_breakdown[L2_WR_ALLOC_R][RESERVATION_FAIL] = 0
	Total_core_cache_stats_breakdown[L2_WR_ALLOC_R][SECTOR_MISS] = 0
	Total_core_cache_stats_breakdown[GLOBAL_ACC_R][TOTAL_ACCESS] = 516096
	Total_core_cache_stats_breakdown[CONST_ACC_R][TOTAL_ACCESS] = 114688
	Total_core_cache_stats_breakdown[GLOBAL_ACC_W][TOTAL_ACCESS] = 65536
	Total_core_cache_stats_breakdown[INST_ACC_R][TOTAL_ACCESS] = 1671168

Total_core_cache_fail_stats:
	Total_core_cache_fail_stats_breakdown[GLOBAL_ACC_R][LINE_ALLOC_FAIL] = 829741
	Total_core_cache_fail_stats_breakdown[GLOBAL_ACC_R][MISS_QUEUE_FULL] = 63
	Total_core_cache_fail_stats_breakdown[CONST_ACC_R][MSHR_MERGE_ENRTY_FAIL] = 3650
	Total_core_cache_fail_stats_breakdown[GLOBAL_ACC_W][MISS_QUEUE_FULL] = 71
ctas_completed 1024, Shader 0 warp_id issue ditsribution:
warp_id:
0, 1, 2, 3, 4, 5, 6, 7, 8, 9, 10, 11, 12, 13, 14, 15, 16, 17, 18, 19, 20, 21, 22, 23, 24, 25, 26, 27, 28, 29, 30, 31, 
distro:
6800, 6800, 6800, 6800, 6800, 6800, 6800, 6800, 6800, 6800, 6800, 6800, 6800, 6800, 6800, 6800, 6800, 6800, 6800, 6800, 6800, 6800, 6800, 6800, 6800, 6800, 6800, 6800, 6800, 6800, 6800, 6800, 
gpgpu_n_tot_thrd_icount = 104857600
gpgpu_n_tot_w_icount = 3276800
gpgpu_n_stall_shd_mem = 144909
gpgpu_n_mem_read_local = 0
gpgpu_n_mem_write_local = 0
gpgpu_n_mem_read_global = 295244
gpgpu_n_mem_write_global = 65536
gpgpu_n_mem_texture = 0
gpgpu_n_mem_const = 30
gpgpu_n_load_insn  = 12582912
gpgpu_n_store_insn = 2097152
gpgpu_n_shmem_insn = 0
gpgpu_n_sstarr_insn = 0
gpgpu_n_tex_insn = 0
gpgpu_n_const_mem_insn = 0
gpgpu_n_param_mem_insn = 3670016
gpgpu_n_shmem_bkconflict = 0
gpgpu_n_cache_bkconflict = 0
gpgpu_n_intrawarp_mshr_merge = 0
gpgpu_n_cmem_portconflict = 3650
gpgpu_stall_shd_mem[c_mem][resource_stall] = 3650
gpgpu_stall_shd_mem[s_mem][bk_conf] = 0
gpgpu_stall_shd_mem[gl_mem][resource_stall] = 18379
gpgpu_stall_shd_mem[gl_mem][coal_stall] = 122880
gpgpu_stall_shd_mem[gl_mem][data_port_stall] = 0
gpu_reg_bank_conflict_stalls = 0
Warp Occupancy Distribution:
Stall:107981	W0_Idle:27480	W0_Scoreboard:5193437	W1:0	W2:0	W3:0	W4:0	W5:0	W6:0	W7:0	W8:0	W9:0	W10:0	W11:0	W12:0	W13:0	W14:0	W15:0	W16:0	W17:0	W18:0	W19:0	W20:0	W21:0	W22:0	W23:0	W24:0	W25:0	W26:0	W27:0	W28:0	W29:0	W30:0	W31:0	W32:3276800
single_issue_nums: WS0:1638400	WS1:1638400	
dual_issue_nums: WS0:0	WS1:0	
traffic_breakdown_coretomem[CONST_ACC_R] = 240 {8:30,}
traffic_breakdown_coretomem[GLOBAL_ACC_R] = 2361952 {8:295244,}
traffic_breakdown_coretomem[GLOBAL_ACC_W] = 8912896 {136:65536,}
traffic_breakdown_coretomem[INST_ACC_R] = 1200 {8:150,}
traffic_breakdown_memtocore[CONST_ACC_R] = 2400 {40:60,}
traffic_breakdown_memtocore[GLOBAL_ACC_R] = 47239040 {40:1180976,}
traffic_breakdown_memtocore[GLOBAL_ACC_W] = 2097152 {8:262144,}
traffic_breakdown_memtocore[INST_ACC_R] = 24000 {40:600,}
maxmflatency = 1688 
max_icnt2mem_latency = 934 
maxmrqlatency = 1428 
max_icnt2sh_latency = 163 
averagemflatency = 232 
avg_icnt2mem_latency = 16 
avg_mrq_latency = 112 
avg_icnt2sh_latency = 13 
mrq_lat_table:53156 	22166 	13601 	19228 	51754 	121987 	121855 	112463 	64536 	8891 	54 	0 	0 	0 	0 	0 	0 	0 	0 	0 	0 	0 	0 	0 	0 	0 	0 	0 	0 	0 	0 	0 	
dq_lat_table:0 	0 	0 	0 	0 	0 	0 	0 	0 	0 	0 	0 	0 	0 	0 	0 	0 	0 	0 	0 	0 	0 	0 	0 	0 	0 	0 	0 	0 	0 	0 	0 	
mf_lat_table:0 	0 	0 	0 	0 	0 	0 	910630 	455477 	76119 	954 	0 	0 	0 	0 	0 	0 	0 	0 	0 	0 	0 	0 	0 	0 	0 	0 	0 	0 	0 	0 	0 	
icnt2mem_lat_table:0 	0 	100 	73 	7 	293060 	33103 	27267 	6743 	607 	0 	0 	0 	0 	0 	0 	0 	0 	0 	0 	0 	0 	0 	0 	
icnt2sh_lat_table:0 	0 	470577 	616601 	280216 	72141 	3498 	147 	0 	0 	0 	0 	0 	0 	0 	0 	0 	0 	0 	0 	0 	0 	0 	0 	
mf_lat_pw_table:0 	0 	0 	0 	0 	0 	0 	554 	21 	0 	0 	0 	0 	0 	0 	0 	0 	0 	0 	0 	0 	0 	0 	0 	0 	0 	0 	0 	0 	0 	0 	0 	
maximum concurrent accesses to same row:
dram[0]:        84        56        48        56        56        44       124       120       120       112        40        52        48        64        48        40 
dram[1]:        88        68        48        56        48        56       120       120       120       112        68        48        32        60        56        48 
dram[2]:        68        92        48        48        48        48       120       124       112       120        40        56        40        48        56        36 
dram[3]:        60        80        60        40        48        56       120       120       112       116        48        68        68        52        48        40 
dram[4]:        92        56        48        40        56        48       124       120       120       112        56        40        48        44        48        40 
dram[5]:        68        68        48        48        56        56       120       120       116       112        64        48        56        72        56        40 
maximum service time to same row:
dram[0]:     12193     12709     14391     14648     11201     11138     11472     10932     13931     18409     12103     12418     13005     13105     21746     21497 
dram[1]:     12279     12451     13800     14530     12692     11778     11475     10931     11991     18702     12763     12538     12945     13122     21708     21651 
dram[2]:     11771     10496     14913     14872     11241     11265     12595      9987     11112     18508     13100     11084     12444     12362     21587     21411 
dram[3]:     12304     11077     13459     13790     12049     11913      9982     10438     12404     18484     12885     11534     12089     11436     21748     21703 
dram[4]:     12319     12850     13627     14182     10499     11008     11405     11991     18359     18755     12447     11495     13272     11727     21481     21433 
dram[5]:     12688     12207     13038     13884     13222     12830     12088     10191     18367     18845     13142     12447     11557     11544     21967     21950 
average row accesses per activate:
dram[0]:  5.676121  5.819888  5.674633  5.944445  5.443263  5.558770  5.417103  5.816479  5.577477  5.636779  5.550500  5.750708  5.377425  5.675676  5.342175  5.315093 
dram[1]:  5.574124  5.792329  5.682904  5.955981  5.534296  5.907692  5.636364  6.168818  5.512455  5.532316  5.573650  5.958904  5.206159  5.893617  5.300263  5.390681 
dram[2]:  5.682482  5.656934  5.754190  5.425438  5.421751  5.403509  5.614480  5.587759  5.558744  5.446903  5.709466  5.514932  5.456989  5.493237  5.589054  5.165954 
dram[3]:  5.899335  5.594229  5.860114  5.669111  5.713222  5.444248  5.944498  5.553571  5.659964  5.372926  6.098098  5.756144  5.876567  5.273356  5.331266  5.390877 
dram[4]:  5.670009  5.733211  5.562837  5.621818  5.444248  5.484389  5.564906  5.716391  5.514286  5.435897  5.970588  5.561644  5.438785  5.446429  5.211256  5.345164 
dram[5]:  5.705883  5.827068  5.754174  5.982625  5.473310  5.695733  5.651778  5.783985  5.563964  5.815864  5.814886  5.665116  5.363236  5.593407  5.592008  5.538603 
average row locality = 589691/105213 = 5.604735
number of total memory accesses made:
dram[0]:         0         0         0         0         0         0         0         0         0         0         0         0         0         0         0         0 
dram[1]:         0         0         0         0         0         0         0         0         0         0         0         0         0         0         0         0 
dram[2]:         0         0         0         0         0         0         0         0         0         0         0         0         0         0         0         0 
dram[3]:         0         0         0         0         0         0         0         0         0         0         0         0         0         0         0         0 
dram[4]:         0         0         0         0         0         0         0         0         0         0         0         0         0         0         0         0 
dram[5]:         0         0         0         0         0         0         0         0         0         0         0         0         0         0         0         0 
total accesses: 0
min_bank_accesses = 0!
min_chip_accesses = 0!
number of total read accesses:
dram[0]:         0         0         0         0         0         0         0         0         0         0         0         0         0         0         0         0 
dram[1]:         0         0         0         0         0         0         0         0         0         0         0         0         0         0         0         0 
dram[2]:         0         0         0         0         0         0         0         0         0         0         0         0         0         0         0         0 
dram[3]:         0         0         0         0         0         0         0         0         0         0         0         0         0         0         0         0 
dram[4]:         0         0         0         0         0         0         0         0         0         0         0         0         0         0         0         0 
dram[5]:         0         0         0         0         0         0         0         0         0         0         0         0         0         0         0         0 
total dram reads = 0
min_bank_accesses = 0!
min_chip_accesses = 0!
number of total write accesses:
dram[0]:      1344      1344      1308      1308      1256      1256      1344      1344      1302      1298      1336      1348      1388      1388      1300      1292 
dram[1]:      1344      1344      1310      1320      1256      1256      1344      1344      1304      1302      1336      1348      1388      1388      1298      1280 
dram[2]:      1344      1344      1312      1314      1256      1264      1344      1344      1300      1294      1336      1348      1388      1384      1298      1286 
dram[3]:      1344      1344      1320      1314      1256      1264      1344      1344      1304      1296      1336      1348      1388      1384      1286      1286 
dram[4]:      1344      1344      1314      1312      1256      1264      1344      1344      1304      1288      1348      1348      1388      1384      1286      1288 
dram[5]:      1344      1344      1318      1316      1256      1264      1344      1344      1304      1294      1348      1348      1388      1384      1282      1284 
total dram writes = 126950
bank skew: 1388/1256 = 1.11
chip skew: 21162/21156 = 1.00
average mf latency per bank:
dram[0]:       2595      2726      2664      2654      2692      2821      2678      2772      2633      2753      2501      2650      2489      2583      2605      2743
dram[1]:       2641      2596      2639      2555      2722      2754      2705      2644      2733      2575      2539      2523      2509      2425      2627      2617
dram[2]:       2661      2657      2671      2662      2786      2670      2754      2678      2733      2716      2631      2488      2525      2535      2728      2618
dram[3]:       2612      2681      2576      2745      2743      2760      2617      2690      2586      2793      2476      2567      2430      2612      2553      2706
dram[4]:       2571      2751      2715      2706      2727      2825      2664      2771      2619      2791      2488      2712      2486      2555      2678      2763
dram[5]:       2636      2632      2707      2596      2827      2774      2700      2645      2729      2634      2603      2549      2523      2474      2760      2656
maximum mf latency per bank:
dram[0]:        987      1237      1053      1015      1282      1058      1076      1155      1226      1007      1053      1192      1129      1263      1049      1420
dram[1]:       1035      1144      1053       912       944      1305      1111      1226      1137      1008      1064      1352       915       997      1119      1117
dram[2]:       1017      1190      1189      1219       906      1254      1154      1283      1079      1314       948       988      1110      1188      1302      1222
dram[3]:       1081       950      1028       913      1096       916      1079      1120      1027      1276       960      1154      1013      1324      1054      1006
dram[4]:       1688      1206      1032      1081      1043      1095      1563      1121       935      1130      1069      1118      1126      1138      1142      1169
dram[5]:       1439       988      1034      1143      1198      1138      1005      1111      1184      1244      1158      1149      1074      1070      1177      1376
Memory Partition 0: 
Cache L2_bank_000:
MSHR contents

Cache L2_bank_001:
MSHR contents

In Dram Latency Queue (total = 0): 
DRAM[0]: 16 bks, busW=4 BL=8 CL=12, tRRD=6 tCCD=2, tRCD=12 tRAS=28 tRP=12 tRC=40
n_cmd=266666 n_nop=128091 n_act=17571 n_pre=17555 n_ref_event=94082017783376 n_req=98290 n_rd=87712 n_rd_L2_A=0 n_write=0 n_wr_bk=21156 bw_util=0.8165
n_activity=261856 dram_eff=0.8315
bk0: 5532a 148059i bk1: 5532a 146727i bk2: 5520a 147014i bk3: 5552a 153308i bk4: 5512a 148359i bk5: 5520a 148750i bk6: 5536a 144079i bk7: 5540a 147318i bk8: 5540a 149983i bk9: 5512a 145418i bk10: 5432a 147522i bk11: 5416a 147049i bk12: 5404a 139720i bk13: 5396a 143162i bk14: 5392a 145098i bk15: 5376a 147859i 

------------------------------------------------------------------------

Row_Buffer_Locality = 0.821233
Row_Buffer_Locality_read = 0.856223
Row_Buffer_Locality_write = 0.531102
Bank_Level_Parallism = 7.683436
Bank_Level_Parallism_Col = 0.671138
Bank_Level_Parallism_Ready = 2.523482
write_to_read_ratio_blp_rw_average = 0.000000
GrpLevelPara = 0.000000 

BW Util details:
bwutil = 0.816512 
total_CMD = 266666 
util_bw = 217736 
Wasted_Col = 41872 
Wasted_Row = 1238 
Idle = 5820 

BW Util Bottlenecks: 
RCDc_limit = 29063 
RCDWRc_limit = 6086 
WTRc_limit = 43173 
RTWc_limit = 126963 
CCDLc_limit = 34106 
rwq = 0 
CCDLc_limit_alone = 19160 
WTRc_limit_alone = 40952 
RTWc_limit_alone = 114238 

Commands details: 
total_CMD = 266666 
n_nop = 128091 
Read = 87712 
Write = 0 
L2_Alloc = 0 
L2_WB = 21156 
n_act = 17571 
n_pre = 17555 
n_ref = 94082017783376 
n_req = 98290 
total_req = 108868 

Dual Bus Interface Util: 
issued_total_row = 35126 
issued_total_col = 108868 
Row_Bus_Util =  0.131723 
CoL_Bus_Util = 0.408256 
Either_Row_CoL_Bus_Util = 0.519658 
Issued_on_Two_Bus_Simul_Util = 0.020321 
issued_two_Eff = 0.039105 
queue_avg = 38.177444 


dram_util_bins: 0 0 0 0 0 0 0 0 0 0
dram_eff_bins: 0 0 0 0 0 0 0 0 0 0
mrqq: max=64 avg=38.1774
Memory Partition 1: 
Cache L2_bank_002:
MSHR contents

Cache L2_bank_003:
MSHR contents

In Dram Latency Queue (total = 0): 
DRAM[1]: 16 bks, busW=4 BL=8 CL=12, tRRD=6 tCCD=2, tRCD=12 tRAS=28 tRP=12 tRC=40
n_cmd=266666 n_nop=128306 n_act=17381 n_pre=17365 n_ref_event=94082018629744 n_req=98265 n_rd=87684 n_rd_L2_A=0 n_write=0 n_wr_bk=21162 bw_util=0.8163
n_activity=262285 dram_eff=0.83
bk0: 5532a 148398i bk1: 5520a 145653i bk2: 5528a 150314i bk3: 5564a 152223i bk4: 5504a 149129i bk5: 5516a 150913i bk6: 5528a 147936i bk7: 5540a 149571i bk8: 5544a 146315i bk9: 5512a 148692i bk10: 5424a 148579i bk11: 5416a 145624i bk12: 5392a 144201i bk13: 5400a 147224i bk14: 5388a 149980i bk15: 5376a 148890i 

------------------------------------------------------------------------

Row_Buffer_Locality = 0.823121
Row_Buffer_Locality_read = 0.857579
Row_Buffer_Locality_write = 0.537567
Bank_Level_Parallism = 7.574121
Bank_Level_Parallism_Col = 6.314052
Bank_Level_Parallism_Ready = 2.486885
write_to_read_ratio_blp_rw_average = 0.456130
GrpLevelPara = 3.425246 

BW Util details:
bwutil = 0.816347 
total_CMD = 266666 
util_bw = 217692 
Wasted_Col = 42481 
Wasted_Row = 1277 
Idle = 5216 

BW Util Bottlenecks: 
RCDc_limit = 28759 
RCDWRc_limit = 6044 
WTRc_limit = 42304 
RTWc_limit = 124844 
CCDLc_limit = 35140 
rwq = 0 
CCDLc_limit_alone = 19514 
WTRc_limit_alone = 39939 
RTWc_limit_alone = 111583 

Commands details: 
total_CMD = 266666 
n_nop = 128306 
Read = 87684 
Write = 0 
L2_Alloc = 0 
L2_WB = 21162 
n_act = 17381 
n_pre = 17365 
n_ref = 94082018629744 
n_req = 98265 
total_req = 108846 

Dual Bus Interface Util: 
issued_total_row = 34746 
issued_total_col = 108846 
Row_Bus_Util =  0.130298 
CoL_Bus_Util = 0.408174 
Either_Row_CoL_Bus_Util = 0.518851 
Issued_on_Two_Bus_Simul_Util = 0.019620 
issued_two_Eff = 0.037814 
queue_avg = 36.676655 


dram_util_bins: 0 0 0 0 0 0 0 0 0 0
dram_eff_bins: 0 0 0 0 0 0 0 0 0 0
mrqq: max=64 avg=36.6767
Memory Partition 2: 
Cache L2_bank_004:
MSHR contents

Cache L2_bank_005:
MSHR contents

In Dram Latency Queue (total = 0): 
DRAM[2]: 16 bks, busW=4 BL=8 CL=12, tRRD=6 tCCD=2, tRCD=12 tRAS=28 tRP=12 tRC=40
n_cmd=266666 n_nop=127782 n_act=17782 n_pre=17766 n_ref_event=0 n_req=98282 n_rd=87704 n_rd_L2_A=0 n_write=0 n_wr_bk=21156 bw_util=0.8165
n_activity=261979 dram_eff=0.8311
bk0: 5556a 146735i bk1: 5528a 143630i bk2: 5524a 148249i bk3: 5528a 145209i bk4: 5504a 150015i bk5: 5528a 145270i bk6: 5532a 145927i bk7: 5536a 140051i bk8: 5548a 146020i bk9: 5508a 142426i bk10: 5424a 144227i bk11: 5420a 144019i bk12: 5396a 146237i bk13: 5400a 140502i bk14: 5376a 148061i bk15: 5396a 147294i 

------------------------------------------------------------------------

Row_Buffer_Locality = 0.819072
Row_Buffer_Locality_read = 0.854636
Row_Buffer_Locality_write = 0.524201
Bank_Level_Parallism = 7.779295
Bank_Level_Parallism_Col = 0.984834
Bank_Level_Parallism_Ready = 2.550881
write_to_read_ratio_blp_rw_average = 0.000000
GrpLevelPara = 0.000000 

BW Util details:
bwutil = 0.816452 
total_CMD = 266666 
util_bw = 217720 
Wasted_Col = 41941 
Wasted_Row = 1323 
Idle = 5682 

BW Util Bottlenecks: 
RCDc_limit = 29170 
RCDWRc_limit = 5942 
WTRc_limit = 45624 
RTWc_limit = 127841 
CCDLc_limit = 34137 
rwq = 0 
CCDLc_limit_alone = 18951 
WTRc_limit_alone = 43183 
RTWc_limit_alone = 115096 

Commands details: 
total_CMD = 266666 
n_nop = 127782 
Read = 87704 
Write = 0 
L2_Alloc = 0 
L2_WB = 21156 
n_act = 17782 
n_pre = 17766 
n_ref = 0 
n_req = 98282 
total_req = 108860 

Dual Bus Interface Util: 
issued_total_row = 35548 
issued_total_col = 108860 
Row_Bus_Util =  0.133305 
CoL_Bus_Util = 0.408226 
Either_Row_CoL_Bus_Util = 0.520816 
Issued_on_Two_Bus_Simul_Util = 0.020715 
issued_two_Eff = 0.039774 
queue_avg = 38.369965 


dram_util_bins: 0 0 0 0 0 0 0 0 0 0
dram_eff_bins: 0 0 0 0 0 0 0 0 0 0
mrqq: max=64 avg=38.37
Memory Partition 3: 
Cache L2_bank_006:
MSHR contents

Cache L2_bank_007:
MSHR contents

In Dram Latency Queue (total = 1): 
Ready @ 288687 -   mf: uid=3896773, sid4294967295:w4294967295, part=3, addr=0xc16f5f00, store, size=128, L2_WRBK  status = IN_PARTITION_DRAM_LATENCY_QUEUE (288587), 
DRAM[3]: 16 bks, busW=4 BL=8 CL=12, tRRD=6 tCCD=2, tRCD=12 tRAS=28 tRP=12 tRC=40
n_cmd=266666 n_nop=128191 n_act=17416 n_pre=17400 n_ref_event=0 n_req=98283 n_rd=87704 n_rd_L2_A=0 n_write=0 n_wr_bk=21158 bw_util=0.8165
n_activity=261974 dram_eff=0.8311
bk0: 5540a 147664i bk1: 5532a 146112i bk2: 5540a 151103i bk3: 5528a 147644i bk4: 5508a 150219i bk5: 5520a 146228i bk6: 5540a 151181i bk7: 5548a 142991i bk8: 5540a 147476i bk9: 5504a 144100i bk10: 5424a 150811i bk11: 5416a 147077i bk12: 5400a 150101i bk13: 5404a 137704i bk14: 5376a 148452i bk15: 5384a 149853i 

------------------------------------------------------------------------

Row_Buffer_Locality = 0.822797
Row_Buffer_Locality_read = 0.858707
Row_Buffer_Locality_write = 0.525097
Bank_Level_Parallism = 7.644054
Bank_Level_Parallism_Col = 6.368986
Bank_Level_Parallism_Ready = 2.539980
write_to_read_ratio_blp_rw_average = 0.450732
GrpLevelPara = 3.451732 

BW Util details:
bwutil = 0.816467 
total_CMD = 266666 
util_bw = 217723 
Wasted_Col = 42207 
Wasted_Row = 1145 
Idle = 5591 

BW Util Bottlenecks: 
RCDc_limit = 28842 
RCDWRc_limit = 6325 
WTRc_limit = 45305 
RTWc_limit = 124990 
CCDLc_limit = 33938 
rwq = 0 
CCDLc_limit_alone = 18867 
WTRc_limit_alone = 42855 
RTWc_limit_alone = 112369 

Commands details: 
total_CMD = 266666 
n_nop = 128191 
Read = 87704 
Write = 0 
L2_Alloc = 0 
L2_WB = 21158 
n_act = 17416 
n_pre = 17400 
n_ref = 0 
n_req = 98283 
total_req = 108862 

Dual Bus Interface Util: 
issued_total_row = 34816 
issued_total_col = 108862 
Row_Bus_Util =  0.130560 
CoL_Bus_Util = 0.408234 
Either_Row_CoL_Bus_Util = 0.519283 
Issued_on_Two_Bus_Simul_Util = 0.019511 
issued_two_Eff = 0.037574 
queue_avg = 37.609966 


dram_util_bins: 0 0 0 0 0 0 0 0 0 0
dram_eff_bins: 0 0 0 0 0 0 0 0 0 0
mrqq: max=64 avg=37.61
Memory Partition 4: 
Cache L2_bank_008:
MSHR contents

Cache L2_bank_009:
MSHR contents

In Dram Latency Queue (total = 0): 
DRAM[4]: 16 bks, busW=4 BL=8 CL=12, tRRD=6 tCCD=2, tRCD=12 tRAS=28 tRP=12 tRC=40
n_cmd=266666 n_nop=127741 n_act=17739 n_pre=17723 n_ref_event=227392 n_req=98290 n_rd=87712 n_rd_L2_A=0 n_write=0 n_wr_bk=21156 bw_util=0.8165
n_activity=261717 dram_eff=0.832
bk0: 5548a 145443i bk1: 5560a 142591i bk2: 5540a 147305i bk3: 5528a 149037i bk4: 5524a 150808i bk5: 5516a 147959i bk6: 5544a 142419i bk7: 5536a 144331i bk8: 5524a 149903i bk9: 5504a 145294i bk10: 5416a 148494i bk11: 5416a 143002i bk12: 5392a 139562i bk13: 5408a 142784i bk14: 5376a 146856i bk15: 5380a 146962i 

------------------------------------------------------------------------

Row_Buffer_Locality = 0.819524
Row_Buffer_Locality_read = 0.854684
Row_Buffer_Locality_write = 0.527983
Bank_Level_Parallism = 7.750340
Bank_Level_Parallism_Col = 6.452909
Bank_Level_Parallism_Ready = 2.536418
write_to_read_ratio_blp_rw_average = 0.454696
GrpLevelPara = 3.474712 

BW Util details:
bwutil = 0.816512 
total_CMD = 266666 
util_bw = 217736 
Wasted_Col = 41931 
Wasted_Row = 1095 
Idle = 5904 

BW Util Bottlenecks: 
RCDc_limit = 29108 
RCDWRc_limit = 6177 
WTRc_limit = 43801 
RTWc_limit = 130453 
CCDLc_limit = 34499 
rwq = 0 
CCDLc_limit_alone = 19250 
WTRc_limit_alone = 41499 
RTWc_limit_alone = 117506 

Commands details: 
total_CMD = 266666 
n_nop = 127741 
Read = 87712 
Write = 0 
L2_Alloc = 0 
L2_WB = 21156 
n_act = 17739 
n_pre = 17723 
n_ref = 227392 
n_req = 98290 
total_req = 108868 

Dual Bus Interface Util: 
issued_total_row = 35462 
issued_total_col = 108868 
Row_Bus_Util =  0.132983 
CoL_Bus_Util = 0.408256 
Either_Row_CoL_Bus_Util = 0.520970 
Issued_on_Two_Bus_Simul_Util = 0.020269 
issued_two_Eff = 0.038906 
queue_avg = 38.670780 


dram_util_bins: 0 0 0 0 0 0 0 0 0 0
dram_eff_bins: 0 0 0 0 0 0 0 0 0 0
mrqq: max=64 avg=38.6708
Memory Partition 5: 
Cache L2_bank_010:
MSHR contents

Cache L2_bank_011:
MSHR contents

In Dram Latency Queue (total = 0): 
DRAM[5]: 16 bks, busW=4 BL=8 CL=12, tRRD=6 tCCD=2, tRCD=12 tRAS=28 tRP=12 tRC=40
n_cmd=266666 n_nop=128392 n_act=17324 n_pre=17308 n_ref_event=0 n_req=98281 n_rd=87700 n_rd_L2_A=0 n_write=0 n_wr_bk=21162 bw_util=0.8165
n_activity=262238 dram_eff=0.8303
bk0: 5536a 149693i bk1: 5528a 149568i bk2: 5544a 148615i bk3: 5540a 148609i bk4: 5524a 148852i bk5: 5508a 150814i bk6: 5528a 147165i bk7: 5540a 147529i bk8: 5524a 146598i bk9: 5512a 147375i bk10: 5420a 148559i bk11: 5416a 141900i bk12: 5404a 140444i bk13: 5416a 144952i bk14: 5376a 150331i bk15: 5384a 145641i 

------------------------------------------------------------------------

Row_Buffer_Locality = 0.823730
Row_Buffer_Locality_read = 0.858609
Row_Buffer_Locality_write = 0.534638
Bank_Level_Parallism = 7.646735
Bank_Level_Parallism_Col = 1.000000
Bank_Level_Parallism_Ready = 2.494625
write_to_read_ratio_blp_rw_average = 0.000000
GrpLevelPara = 0.000000 

BW Util details:
bwutil = 0.816467 
total_CMD = 266666 
util_bw = 217724 
Wasted_Col = 42140 
Wasted_Row = 1354 
Idle = 5448 

BW Util Bottlenecks: 
RCDc_limit = 28731 
RCDWRc_limit = 6247 
WTRc_limit = 42592 
RTWc_limit = 128243 
CCDLc_limit = 35096 
rwq = 0 
CCDLc_limit_alone = 19397 
WTRc_limit_alone = 40313 
RTWc_limit_alone = 114823 

Commands details: 
total_CMD = 266666 
n_nop = 128392 
Read = 87700 
Write = 0 
L2_Alloc = 0 
L2_WB = 21162 
n_act = 17324 
n_pre = 17308 
n_ref = 0 
n_req = 98281 
total_req = 108862 

Dual Bus Interface Util: 
issued_total_row = 34632 
issued_total_col = 108862 
Row_Bus_Util =  0.129870 
CoL_Bus_Util = 0.408234 
Either_Row_CoL_Bus_Util = 0.518529 
Issued_on_Two_Bus_Simul_Util = 0.019575 
issued_two_Eff = 0.037751 
queue_avg = 38.707882 


dram_util_bins: 0 0 0 0 0 0 0 0 0 0
dram_eff_bins: 0 0 0 0 0 0 0 0 0 0
mrqq: max=64 avg=38.7079

========= L2 cache stats =========
L2_cache_bank[0]: Access = 117888, Miss = 65708, Miss_rate = 0.557, Pending_hits = 2449, Reservation_fails = 439
L2_cache_bank[1]: Access = 123444, Miss = 65692, Miss_rate = 0.532, Pending_hits = 2683, Reservation_fails = 49
L2_cache_bank[2]: Access = 122208, Miss = 65680, Miss_rate = 0.537, Pending_hits = 2629, Reservation_fails = 259
L2_cache_bank[3]: Access = 117560, Miss = 65692, Miss_rate = 0.559, Pending_hits = 1888, Reservation_fails = 33
L2_cache_bank[4]: Access = 123488, Miss = 65700, Miss_rate = 0.532, Pending_hits = 2718, Reservation_fails = 398
L2_cache_bank[5]: Access = 117620, Miss = 65692, Miss_rate = 0.559, Pending_hits = 2314, Reservation_fails = 43
L2_cache_bank[6]: Access = 117552, Miss = 65708, Miss_rate = 0.559, Pending_hits = 1933, Reservation_fails = 368
L2_cache_bank[7]: Access = 122472, Miss = 65684, Miss_rate = 0.536, Pending_hits = 2630, Reservation_fails = 44
L2_cache_bank[8]: Access = 118156, Miss = 65712, Miss_rate = 0.556, Pending_hits = 2429, Reservation_fails = 159
L2_cache_bank[9]: Access = 123360, Miss = 65696, Miss_rate = 0.533, Pending_hits = 2749, Reservation_fails = 34
L2_cache_bank[10]: Access = 122448, Miss = 65704, Miss_rate = 0.537, Pending_hits = 2670, Reservation_fails = 36
L2_cache_bank[11]: Access = 117584, Miss = 65692, Miss_rate = 0.559, Pending_hits = 1950, Reservation_fails = 38
L2_total_cache_accesses = 1443780
L2_total_cache_misses = 788360
L2_total_cache_miss_rate = 0.5460
L2_total_cache_pending_hits = 29042
L2_total_cache_reservation_fails = 1900
L2_total_cache_breakdown:
	L2_cache_stats_breakdown[GLOBAL_ACC_R][HIT] = 625890
	L2_cache_stats_breakdown[GLOBAL_ACC_R][HIT_RESERVED] = 28918
	L2_cache_stats_breakdown[GLOBAL_ACC_R][MISS] = 131542
	L2_cache_stats_breakdown[GLOBAL_ACC_R][RESERVATION_FAIL] = 455
	L2_cache_stats_breakdown[GLOBAL_ACC_R][SECTOR_MISS] = 394626
	L2_cache_stats_breakdown[LOCAL_ACC_R][HIT] = 0
	L2_cache_stats_breakdown[LOCAL_ACC_R][HIT_RESERVED] = 0
	L2_cache_stats_breakdown[LOCAL_ACC_R][MISS] = 0
	L2_cache_stats_breakdown[LOCAL_ACC_R][RESERVATION_FAIL] = 0
	L2_cache_stats_breakdown[LOCAL_ACC_R][SECTOR_MISS] = 0
	L2_cache_stats_breakdown[CONST_ACC_R][HIT] = 44
	L2_cache_stats_breakdown[CONST_ACC_R][HIT_RESERVED] = 12
	L2_cache_stats_breakdown[CONST_ACC_R][MISS] = 1
	L2_cache_stats_breakdown[CONST_ACC_R][RESERVATION_FAIL] = 159
	L2_cache_stats_breakdown[CONST_ACC_R][SECTOR_MISS] = 3
	L2_cache_stats_breakdown[TEXTURE_ACC_R][HIT] = 0
	L2_cache_stats_breakdown[TEXTURE_ACC_R][HIT_RESERVED] = 0
	L2_cache_stats_breakdown[TEXTURE_ACC_R][MISS] = 0
	L2_cache_stats_breakdown[TEXTURE_ACC_R][RESERVATION_FAIL] = 0
	L2_cache_stats_breakdown[TEXTURE_ACC_R][SECTOR_MISS] = 0
	L2_cache_stats_breakdown[GLOBAL_ACC_W][HIT] = 0
	L2_cache_stats_breakdown[GLOBAL_ACC_W][HIT_RESERVED] = 0
	L2_cache_stats_breakdown[GLOBAL_ACC_W][MISS] = 65536
	L2_cache_stats_breakdown[GLOBAL_ACC_W][RESERVATION_FAIL] = 0
	L2_cache_stats_breakdown[GLOBAL_ACC_W][SECTOR_MISS] = 196608
	L2_cache_stats_breakdown[LOCAL_ACC_W][HIT] = 0
	L2_cache_stats_breakdown[LOCAL_ACC_W][HIT_RESERVED] = 0
	L2_cache_stats_breakdown[LOCAL_ACC_W][MISS] = 0
	L2_cache_stats_breakdown[LOCAL_ACC_W][RESERVATION_FAIL] = 0
	L2_cache_stats_breakdown[LOCAL_ACC_W][SECTOR_MISS] = 0
	L2_cache_stats_breakdown[L1_WRBK_ACC][HIT] = 0
	L2_cache_stats_breakdown[L1_WRBK_ACC][HIT_RESERVED] = 0
	L2_cache_stats_breakdown[L1_WRBK_ACC][MISS] = 0
	L2_cache_stats_breakdown[L1_WRBK_ACC][RESERVATION_FAIL] = 0
	L2_cache_stats_breakdown[L1_WRBK_ACC][SECTOR_MISS] = 0
	L2_cache_stats_breakdown[L2_WRBK_ACC][HIT] = 0
	L2_cache_stats_breakdown[L2_WRBK_ACC][HIT_RESERVED] = 0
	L2_cache_stats_breakdown[L2_WRBK_ACC][MISS] = 0
	L2_cache_stats_breakdown[L2_WRBK_ACC][RESERVATION_FAIL] = 0
	L2_cache_stats_breakdown[L2_WRBK_ACC][SECTOR_MISS] = 0
	L2_cache_stats_breakdown[INST_ACC_R][HIT] = 444
	L2_cache_stats_breakdown[INST_ACC_R][HIT_RESERVED] = 112
	L2_cache_stats_breakdown[INST_ACC_R][MISS] = 11
	L2_cache_stats_breakdown[INST_ACC_R][RESERVATION_FAIL] = 1286
	L2_cache_stats_breakdown[INST_ACC_R][SECTOR_MISS] = 33
	L2_cache_stats_breakdown[L1_WR_ALLOC_R][HIT] = 0
	L2_cache_stats_breakdown[L1_WR_ALLOC_R][HIT_RESERVED] = 0
	L2_cache_stats_breakdown[L1_WR_ALLOC_R][MISS] = 0
	L2_cache_stats_breakdown[L1_WR_ALLOC_R][RESERVATION_FAIL] = 0
	L2_cache_stats_breakdown[L1_WR_ALLOC_R][SECTOR_MISS] = 0
	L2_cache_stats_breakdown[L2_WR_ALLOC_R][HIT] = 0
	L2_cache_stats_breakdown[L2_WR_ALLOC_R][HIT_RESERVED] = 0
	L2_cache_stats_breakdown[L2_WR_ALLOC_R][MISS] = 0
	L2_cache_stats_breakdown[L2_WR_ALLOC_R][RESERVATION_FAIL] = 0
	L2_cache_stats_breakdown[L2_WR_ALLOC_R][SECTOR_MISS] = 0
	L2_cache_stats_breakdown[GLOBAL_ACC_R][TOTAL_ACCESS] = 1180976
	L2_cache_stats_breakdown[CONST_ACC_R][TOTAL_ACCESS] = 60
	L2_cache_stats_breakdown[GLOBAL_ACC_W][TOTAL_ACCESS] = 262144
	L2_cache_stats_breakdown[INST_ACC_R][TOTAL_ACCESS] = 600
L2_total_cache_reservation_fail_breakdown:
	L2_cache_stats_fail_breakdown[GLOBAL_ACC_R][MISS_QUEUE_FULL] = 455
	L2_cache_stats_fail_breakdown[CONST_ACC_R][MSHR_MERGE_ENRTY_FAIL] = 159
	L2_cache_stats_fail_breakdown[INST_ACC_R][MSHR_MERGE_ENRTY_FAIL] = 1286
L2_cache_data_port_util = 0.196
L2_cache_fill_port_util = 0.152

icnt_total_pkts_mem_to_simt=1443780
icnt_total_pkts_simt_to_mem=557568
LD_mem_lat_dist  0 0 0 0 0 0 0 0 0 0 0 0 0 0 0 0 0 0 0 0 0 0 0 0 0 0 0
ST_mem_lat_dist  0 0 0 0 0 0 0 0 0 0 0 0 0 0 0 0 0 0 0 0 0 0 0 0 0 0 0
----------------------------Interconnect-DETAILS--------------------------------
Class 0:
Packet latency average = 10.1198
	minimum = 5
	maximum = 161
Network latency average = 10.0554
	minimum = 5
	maximum = 147
Slowest packet = 16365
Flit latency average = 9.48749
	minimum = 5
	maximum = 147
Slowest flit = 17511
Fragmentation average = 0
	minimum = 0
	maximum = 0
Injected packet rate average = 0.231609
	minimum = 0.0807658 (at node 7)
	maximum = 0.427886 (at node 19)
Accepted packet rate average = 0.231609
	minimum = 0.10183 (at node 21)
	maximum = 0.344324 (at node 9)
Injected flit rate average = 0.25684
	minimum = 0.124051 (at node 11)
	maximum = 0.427886 (at node 19)
Accepted flit rate average= 0.25684
	minimum = 0.158586 (at node 21)
	maximum = 0.344324 (at node 9)
Injected packet length average = 1.10894
Accepted packet length average = 1.10894
Total in-flight flits = 0 (0 measured)
====== Overall Traffic Statistics ======
====== Traffic class 0 ======
Packet latency average = 10.1198 (1 samples)
	minimum = 5 (1 samples)
	maximum = 161 (1 samples)
Network latency average = 10.0554 (1 samples)
	minimum = 5 (1 samples)
	maximum = 147 (1 samples)
Flit latency average = 9.48749 (1 samples)
	minimum = 5 (1 samples)
	maximum = 147 (1 samples)
Fragmentation average = 0 (1 samples)
	minimum = 0 (1 samples)
	maximum = 0 (1 samples)
Injected packet rate average = 0.231609 (1 samples)
	minimum = 0.0807658 (1 samples)
	maximum = 0.427886 (1 samples)
Accepted packet rate average = 0.231609 (1 samples)
	minimum = 0.10183 (1 samples)
	maximum = 0.344324 (1 samples)
Injected flit rate average = 0.25684 (1 samples)
	minimum = 0.124051 (1 samples)
	maximum = 0.427886 (1 samples)
Accepted flit rate average = 0.25684 (1 samples)
	minimum = 0.158586 (1 samples)
	maximum = 0.344324 (1 samples)
Injected packet size average = 1.10894 (1 samples)
Accepted packet size average = 1.10894 (1 samples)
Hops average = 1 (1 samples)
----------------------------END-of-Interconnect-DETAILS-------------------------


gpgpu_simulation_time = 0 days, 0 hrs, 3 min, 17 sec (197 sec)
gpgpu_simulation_rate = 530941 (inst/sec)
gpgpu_simulation_rate = 1464 (cycle/sec)
gpgpu_silicon_slowdown = 683060x
GPGPU-Sim PTX: Setting up arguments for 8 bytes starting at 0x7ffc8b840368..
GPGPU-Sim PTX: Setting up arguments for 8 bytes starting at 0x7ffc8b840360..
GPGPU-Sim PTX: Setting up arguments for 8 bytes starting at 0x7ffc8b840358..
GPGPU-Sim PTX: Setting up arguments for 4 bytes starting at 0x7ffc8b840354..
GPGPU-Sim PTX: Setting up arguments for 4 bytes starting at 0x7ffc8b840350..
GPGPU-Sim PTX: Setting up arguments for 4 bytes starting at 0x7ffc8b84034c..
GPGPU-Sim PTX: Setting up arguments for 4 bytes starting at 0x7ffc8b840348..
GPGPU-Sim PTX: Setting up arguments for 4 bytes starting at 0x7ffc8b840344..
GPGPU-Sim PTX: Setting up arguments for 4 bytes starting at 0x7ffc8b840340..
GPGPU-Sim PTX: Setting up arguments for 4 bytes starting at 0x7ffc8b84033c..
GPGPU-Sim PTX: Setting up arguments for 4 bytes starting at 0x7ffc8b840338..
GPGPU-Sim PTX: Setting up arguments for 4 bytes starting at 0x7ffc8b840334..
GPGPU-Sim PTX: Setting up arguments for 4 bytes starting at 0x7ffc8b840330..
GPGPU-Sim PTX: Setting up arguments for 4 bytes starting at 0x7ffc8b84032c..

GPGPU-Sim PTX: cudaLaunch for 0x0x55912bb90865 (mode=performance simulation) on stream 0
GPGPU-Sim PTX: PDOM analysis already done for _Z11hotspotOpt1PfS_S_fiiifffffff 
GPGPU-Sim PTX: pushing kernel '_Z11hotspotOpt1PfS_S_fiiifffffff' to stream 0, gridDim= (8,128,1) blockDim = (64,4,1) 
GPGPU-Sim uArch: Shader 12 bind to kernel 2 '_Z11hotspotOpt1PfS_S_fiiifffffff'
GPGPU-Sim uArch: Shader 13 bind to kernel 2 '_Z11hotspotOpt1PfS_S_fiiifffffff'
GPGPU-Sim uArch: Shader 14 bind to kernel 2 '_Z11hotspotOpt1PfS_S_fiiifffffff'
GPGPU-Sim uArch: Shader 0 bind to kernel 2 '_Z11hotspotOpt1PfS_S_fiiifffffff'
GPGPU-Sim uArch: Shader 1 bind to kernel 2 '_Z11hotspotOpt1PfS_S_fiiifffffff'
GPGPU-Sim uArch: Shader 2 bind to kernel 2 '_Z11hotspotOpt1PfS_S_fiiifffffff'
GPGPU-Sim uArch: Shader 3 bind to kernel 2 '_Z11hotspotOpt1PfS_S_fiiifffffff'
GPGPU-Sim uArch: Shader 4 bind to kernel 2 '_Z11hotspotOpt1PfS_S_fiiifffffff'
GPGPU-Sim uArch: Shader 5 bind to kernel 2 '_Z11hotspotOpt1PfS_S_fiiifffffff'
GPGPU-Sim uArch: Shader 6 bind to kernel 2 '_Z11hotspotOpt1PfS_S_fiiifffffff'
GPGPU-Sim uArch: Shader 7 bind to kernel 2 '_Z11hotspotOpt1PfS_S_fiiifffffff'
GPGPU-Sim uArch: Shader 8 bind to kernel 2 '_Z11hotspotOpt1PfS_S_fiiifffffff'
GPGPU-Sim uArch: Shader 9 bind to kernel 2 '_Z11hotspotOpt1PfS_S_fiiifffffff'
GPGPU-Sim uArch: Shader 10 bind to kernel 2 '_Z11hotspotOpt1PfS_S_fiiifffffff'
GPGPU-Sim uArch: Shader 11 bind to kernel 2 '_Z11hotspotOpt1PfS_S_fiiifffffff'
Destroy streams for kernel 2: size 0
kernel_name = _Z11hotspotOpt1PfS_S_fiiifffffff 
kernel_launch_uid = 2 
gpu_sim_cycle = 285355
gpu_sim_insn = 104595456
gpu_ipc =     366.5450
gpu_tot_sim_cycle = 573955
gpu_tot_sim_insn = 209190912
gpu_tot_ipc =     364.4727
gpu_tot_issued_cta = 2048
gpu_occupancy = 60.3497% 
gpu_tot_occupancy = 60.3659% 
max_total_param_size = 0
gpu_stall_dramfull = 547
gpu_stall_icnt2sh    = 98
partiton_level_parallism =       1.2692
partiton_level_parallism_total  =       1.2599
partiton_level_parallism_util =       1.7195
partiton_level_parallism_util_total  =       1.7144
L2_BW  =     162.4533 GB/Sec
L2_BW_total  =     161.2632 GB/Sec
gpu_total_sim_rate=515248

========= Core cache stats =========
L1I_cache:
	L1I_total_cache_accesses = 3342336
	L1I_total_cache_misses = 3315
	L1I_total_cache_miss_rate = 0.0010
	L1I_total_cache_pending_hits = 0
	L1I_total_cache_reservation_fails = 0
L1C_cache:
	L1C_total_cache_accesses = 229376
	L1C_total_cache_misses = 867
	L1C_total_cache_miss_rate = 0.0038
	L1C_total_cache_pending_hits = 0
	L1C_total_cache_reservation_fails = 3650
L1T_cache:
	L1T_total_cache_accesses = 0
	L1T_total_cache_misses = 0
	L1T_total_cache_pending_hits = 0
	L1T_total_cache_reservation_fails = 0

Total_core_cache_stats:
	Total_core_cache_stats_breakdown[GLOBAL_ACC_R][HIT] = 338334
	Total_core_cache_stats_breakdown[GLOBAL_ACC_R][HIT_RESERVED] = 101987
	Total_core_cache_stats_breakdown[GLOBAL_ACC_R][MISS] = 591871
	Total_core_cache_stats_breakdown[GLOBAL_ACC_R][RESERVATION_FAIL] = 1609954
	Total_core_cache_stats_breakdown[GLOBAL_ACC_R][SECTOR_MISS] = 0
	Total_core_cache_stats_breakdown[LOCAL_ACC_R][HIT] = 0
	Total_core_cache_stats_breakdown[LOCAL_ACC_R][HIT_RESERVED] = 0
	Total_core_cache_stats_breakdown[LOCAL_ACC_R][MISS] = 0
	Total_core_cache_stats_breakdown[LOCAL_ACC_R][RESERVATION_FAIL] = 0
	Total_core_cache_stats_breakdown[LOCAL_ACC_R][SECTOR_MISS] = 0
	Total_core_cache_stats_breakdown[CONST_ACC_R][HIT] = 228509
	Total_core_cache_stats_breakdown[CONST_ACC_R][HIT_RESERVED] = 0
	Total_core_cache_stats_breakdown[CONST_ACC_R][MISS] = 867
	Total_core_cache_stats_breakdown[CONST_ACC_R][RESERVATION_FAIL] = 3650
	Total_core_cache_stats_breakdown[CONST_ACC_R][SECTOR_MISS] = 0
	Total_core_cache_stats_breakdown[TEXTURE_ACC_R][HIT] = 0
	Total_core_cache_stats_breakdown[TEXTURE_ACC_R][HIT_RESERVED] = 0
	Total_core_cache_stats_breakdown[TEXTURE_ACC_R][MISS] = 0
	Total_core_cache_stats_breakdown[TEXTURE_ACC_R][RESERVATION_FAIL] = 0
	Total_core_cache_stats_breakdown[TEXTURE_ACC_R][SECTOR_MISS] = 0
	Total_core_cache_stats_breakdown[GLOBAL_ACC_W][HIT] = 0
	Total_core_cache_stats_breakdown[GLOBAL_ACC_W][HIT_RESERVED] = 0
	Total_core_cache_stats_breakdown[GLOBAL_ACC_W][MISS] = 131072
	Total_core_cache_stats_breakdown[GLOBAL_ACC_W][RESERVATION_FAIL] = 71
	Total_core_cache_stats_breakdown[GLOBAL_ACC_W][SECTOR_MISS] = 0
	Total_core_cache_stats_breakdown[LOCAL_ACC_W][HIT] = 0
	Total_core_cache_stats_breakdown[LOCAL_ACC_W][HIT_RESERVED] = 0
	Total_core_cache_stats_breakdown[LOCAL_ACC_W][MISS] = 0
	Total_core_cache_stats_breakdown[LOCAL_ACC_W][RESERVATION_FAIL] = 0
	Total_core_cache_stats_breakdown[LOCAL_ACC_W][SECTOR_MISS] = 0
	Total_core_cache_stats_breakdown[L1_WRBK_ACC][HIT] = 0
	Total_core_cache_stats_breakdown[L1_WRBK_ACC][HIT_RESERVED] = 0
	Total_core_cache_stats_breakdown[L1_WRBK_ACC][MISS] = 0
	Total_core_cache_stats_breakdown[L1_WRBK_ACC][RESERVATION_FAIL] = 0
	Total_core_cache_stats_breakdown[L1_WRBK_ACC][SECTOR_MISS] = 0
	Total_core_cache_stats_breakdown[L2_WRBK_ACC][HIT] = 0
	Total_core_cache_stats_breakdown[L2_WRBK_ACC][HIT_RESERVED] = 0
	Total_core_cache_stats_breakdown[L2_WRBK_ACC][MISS] = 0
	Total_core_cache_stats_breakdown[L2_WRBK_ACC][RESERVATION_FAIL] = 0
	Total_core_cache_stats_breakdown[L2_WRBK_ACC][SECTOR_MISS] = 0
	Total_core_cache_stats_breakdown[INST_ACC_R][HIT] = 3339021
	Total_core_cache_stats_breakdown[INST_ACC_R][HIT_RESERVED] = 0
	Total_core_cache_stats_breakdown[INST_ACC_R][MISS] = 3315
	Total_core_cache_stats_breakdown[INST_ACC_R][RESERVATION_FAIL] = 0
	Total_core_cache_stats_breakdown[INST_ACC_R][SECTOR_MISS] = 0
	Total_core_cache_stats_breakdown[L1_WR_ALLOC_R][HIT] = 0
	Total_core_cache_stats_breakdown[L1_WR_ALLOC_R][HIT_RESERVED] = 0
	Total_core_cache_stats_breakdown[L1_WR_ALLOC_R][MISS] = 0
	Total_core_cache_stats_breakdown[L1_WR_ALLOC_R][RESERVATION_FAIL] = 0
	Total_core_cache_stats_breakdown[L1_WR_ALLOC_R][SECTOR_MISS] = 0
	Total_core_cache_stats_breakdown[L2_WR_ALLOC_R][HIT] = 0
	Total_core_cache_stats_breakdown[L2_WR_ALLOC_R][HIT_RESERVED] = 0
	Total_core_cache_stats_breakdown[L2_WR_ALLOC_R][MISS] = 0
	Total_core_cache_stats_breakdown[L2_WR_ALLOC_R][RESERVATION_FAIL] = 0
	Total_core_cache_stats_breakdown[L2_WR_ALLOC_R][SECTOR_MISS] = 0
	Total_core_cache_stats_breakdown[GLOBAL_ACC_R][TOTAL_ACCESS] = 1032192
	Total_core_cache_stats_breakdown[CONST_ACC_R][TOTAL_ACCESS] = 229376
	Total_core_cache_stats_breakdown[GLOBAL_ACC_W][TOTAL_ACCESS] = 131072
	Total_core_cache_stats_breakdown[INST_ACC_R][TOTAL_ACCESS] = 3342336

Total_core_cache_fail_stats:
	Total_core_cache_fail_stats_breakdown[GLOBAL_ACC_R][LINE_ALLOC_FAIL] = 1609856
	Total_core_cache_fail_stats_breakdown[GLOBAL_ACC_R][MISS_QUEUE_FULL] = 98
	Total_core_cache_fail_stats_breakdown[CONST_ACC_R][MSHR_MERGE_ENRTY_FAIL] = 3650
	Total_core_cache_fail_stats_breakdown[GLOBAL_ACC_W][MISS_QUEUE_FULL] = 71
ctas_completed 2048, Shader 0 warp_id issue ditsribution:
warp_id:
0, 1, 2, 3, 4, 5, 6, 7, 8, 9, 10, 11, 12, 13, 14, 15, 16, 17, 18, 19, 20, 21, 22, 23, 24, 25, 26, 27, 28, 29, 30, 31, 
distro:
13600, 13600, 13600, 13600, 13600, 13600, 13600, 13600, 13600, 13600, 13600, 13600, 13600, 13600, 13600, 13600, 13600, 13600, 13600, 13600, 13600, 13600, 13600, 13600, 13200, 13200, 13200, 13200, 13200, 13200, 13200, 13200, 
gpgpu_n_tot_thrd_icount = 209715200
gpgpu_n_tot_w_icount = 6553600
gpgpu_n_stall_shd_mem = 277783
gpgpu_n_mem_read_local = 0
gpgpu_n_mem_write_local = 0
gpgpu_n_mem_read_global = 591871
gpgpu_n_mem_write_global = 131072
gpgpu_n_mem_texture = 0
gpgpu_n_mem_const = 30
gpgpu_n_load_insn  = 25165824
gpgpu_n_store_insn = 4194304
gpgpu_n_shmem_insn = 0
gpgpu_n_sstarr_insn = 0
gpgpu_n_tex_insn = 0
gpgpu_n_const_mem_insn = 0
gpgpu_n_param_mem_insn = 7340032
gpgpu_n_shmem_bkconflict = 0
gpgpu_n_cache_bkconflict = 0
gpgpu_n_intrawarp_mshr_merge = 0
gpgpu_n_cmem_portconflict = 3650
gpgpu_stall_shd_mem[c_mem][resource_stall] = 3650
gpgpu_stall_shd_mem[s_mem][bk_conf] = 0
gpgpu_stall_shd_mem[gl_mem][resource_stall] = 28373
gpgpu_stall_shd_mem[gl_mem][coal_stall] = 245760
gpgpu_stall_shd_mem[gl_mem][data_port_stall] = 0
gpu_reg_bank_conflict_stalls = 0
Warp Occupancy Distribution:
Stall:192417	W0_Idle:37401	W0_Scoreboard:10319686	W1:0	W2:0	W3:0	W4:0	W5:0	W6:0	W7:0	W8:0	W9:0	W10:0	W11:0	W12:0	W13:0	W14:0	W15:0	W16:0	W17:0	W18:0	W19:0	W20:0	W21:0	W22:0	W23:0	W24:0	W25:0	W26:0	W27:0	W28:0	W29:0	W30:0	W31:0	W32:6553600
single_issue_nums: WS0:3276800	WS1:3276800	
dual_issue_nums: WS0:0	WS1:0	
traffic_breakdown_coretomem[CONST_ACC_R] = 240 {8:30,}
traffic_breakdown_coretomem[GLOBAL_ACC_R] = 4734968 {8:591871,}
traffic_breakdown_coretomem[GLOBAL_ACC_W] = 17825792 {136:131072,}
traffic_breakdown_coretomem[INST_ACC_R] = 1200 {8:150,}
traffic_breakdown_memtocore[CONST_ACC_R] = 2400 {40:60,}
traffic_breakdown_memtocore[GLOBAL_ACC_R] = 94699360 {40:2367484,}
traffic_breakdown_memtocore[GLOBAL_ACC_W] = 4194304 {8:524288,}
traffic_breakdown_memtocore[INST_ACC_R] = 24000 {40:600,}
maxmflatency = 1688 
max_icnt2mem_latency = 934 
maxmrqlatency = 1428 
max_icnt2sh_latency = 163 
averagemflatency = 232 
avg_icnt2mem_latency = 15 
avg_mrq_latency = 111 
avg_icnt2sh_latency = 13 
mrq_lat_table:109979 	46753 	29030 	40024 	103469 	238347 	244760 	223110 	127521 	17860 	96 	0 	0 	0 	0 	0 	0 	0 	0 	0 	0 	0 	0 	0 	0 	0 	0 	0 	0 	0 	0 	0 	
dq_lat_table:0 	0 	0 	0 	0 	0 	0 	0 	0 	0 	0 	0 	0 	0 	0 	0 	0 	0 	0 	0 	0 	0 	0 	0 	0 	0 	0 	0 	0 	0 	0 	0 	
mf_lat_table:0 	0 	0 	0 	0 	0 	0 	1828787 	912012 	149210 	1823 	0 	0 	0 	0 	0 	0 	0 	0 	0 	0 	0 	0 	0 	0 	0 	0 	0 	0 	0 	0 	0 	
icnt2mem_lat_table:0 	0 	100 	73 	7 	591003 	65359 	52572 	13082 	927 	0 	0 	0 	0 	0 	0 	0 	0 	0 	0 	0 	0 	0 	0 	
icnt2sh_lat_table:0 	0 	946953 	1239704 	558756 	139849 	6423 	147 	0 	0 	0 	0 	0 	0 	0 	0 	0 	0 	0 	0 	0 	0 	0 	0 	
mf_lat_pw_table:0 	0 	0 	0 	0 	0 	0 	1111 	34 	0 	0 	0 	0 	0 	0 	0 	0 	0 	0 	0 	0 	0 	0 	0 	0 	0 	0 	0 	0 	0 	0 	0 	
maximum concurrent accesses to same row:
dram[0]:       124        80        72        96        68        64       124       120       120       112        80        88        84        76        72        64 
dram[1]:        88       124        72        88        68        64       120       120       120       112        80        88        80        80        72        56 
dram[2]:        96       124        92        68        72        64       120       124       112       120        80        88        80        76        72        64 
dram[3]:       128        80        88        64        72        56       120       120       112       116        80        88        80        72        68        64 
dram[4]:       124        96        76        80        68        64       124       120       120       112        88        88        84        72        72        56 
dram[5]:        88       108        76        80        64        68       120       120       116       112        88        88        80        80        68        56 
maximum service time to same row:
dram[0]:     12193     12709     14391     14648     11559     11138     11472     10932     13931     18409     13573     14220     13005     13105     21746     21497 
dram[1]:     12279     12451     13800     14530     12852     12114     11475     11869     11991     18702     13569     12538     12945     13122     21708     21651 
dram[2]:     11771     10496     14913     14872     13066     11775     12595     10618     11112     18508     13286     12184     12444     12362     21587     21411 
dram[3]:     12304     11077     13459     13790     12619     11913     10138     10661     12404     18484     12885     12413     12089     11436     21748     21703 
dram[4]:     12319     12850     13627     14182     12937     11783     11405     11991     18359     18755     12865     12843     13272     11727     21481     21433 
dram[5]:     12688     12207     13038     13884     13222     12830     12088     11484     18367     18845     14249     13976     11557     11544     21967     21950 
average row accesses per activate:
dram[0]:  5.920612  5.902764  5.833097  6.170805  5.732276  5.777100  5.468916  5.834516  5.671442  5.719233  5.854546  6.024631  5.697222  5.863550  5.446818  5.620166 
dram[1]:  5.875653  6.095613  5.845682  6.198207  5.742750  5.937289  5.693944  6.299438  5.657919  5.770538  5.814075  6.220244  5.679297  6.196374  5.495281  5.612874 
dram[2]:  5.960596  5.837736  5.974904  5.709677  5.660368  5.618265  5.628480  5.563488  5.685622  5.557780  5.888728  5.848543  5.765588  5.726511  5.658480  5.310899 
dram[3]:  6.150943  5.806754  6.148662  5.810506  5.983455  5.548038  6.213710  5.594558  5.837452  5.525792  6.108945  5.912035  6.243531  5.723048  5.595784  5.525983 
dram[4]:  5.916945  5.881573  5.840395  5.875711  5.666513  5.711896  5.558558  5.622263  5.562017  5.612133  6.067461  5.816928  5.781647  5.583333  5.439394  5.528268 
[...]
dram[5]:       1503      1185      1250      1459      1198      1170      1179      1169      1393      1244      1266      1224      1418      1082      1403      1386
Memory Partition 0: 
Cache L2_bank_000:
MSHR contents

Cache L2_bank_001:
MSHR contents

In Dram Latency Queue (total = 0): 
DRAM[0]: 16 bks, busW=4 BL=8 CL=12, tRRD=6 tCCD=2, tRCD=12 tRAS=28 tRP=12 tRC=40
n_cmd=1059851 n_nop=505891 n_act=68870 n_pre=68854 n_ref_event=94082017783376 n_req=393879 n_rd=350544 n_rd_L2_A=0 n_write=0 n_wr_bk=86670 bw_util=0.825
n_activity=1047157 dram_eff=0.835
bk0: 22060a 574793i bk1: 22072a 567520i bk2: 22064a 569844i bk3: 22176a 577342i bk4: 21956a 573195i bk5: 21980a 562431i bk6: 21884a 555219i bk7: 21936a 563198i bk8: 21848a 569531i bk9: 21776a 569059i bk10: 21768a 575603i bk11: 21768a 573125i bk12: 21856a 553701i bk13: 21844a 561099i bk14: 21796a 557948i bk15: 21760a 564745i 

------------------------------------------------------------------------

Row_Buffer_Locality = 0.825149
Row_Buffer_Locality_read = 0.859672
Row_Buffer_Locality_write = 0.545887
Bank_Level_Parallism = 7.891582
Bank_Level_Parallism_Col = 0.671138
Bank_Level_Parallism_Ready = 2.564337
write_to_read_ratio_blp_rw_average = 0.000000
GrpLevelPara = 0.000000 

BW Util details:
bwutil = 0.825048 
total_CMD = 1059851 
util_bw = 874428 
Wasted_Col = 165197 
Wasted_Row = 4253 
Idle = 15973 

BW Util Bottlenecks: 
RCDc_limit = 111405 
RCDWRc_limit = 24274 
WTRc_limit = 181181 
RTWc_limit = 518142 
CCDLc_limit = 139569 
rwq = 0 
CCDLc_limit_alone = 74706 
WTRc_limit_alone = 170791 
RTWc_limit_alone = 463669 

Commands details: 
total_CMD = 1059851 
n_nop = 505891 
Read = 350544 
Write = 0 
L2_Alloc = 0 
L2_WB = 86670 
n_act = 68870 
n_pre = 68854 
n_ref = 94082017783376 
n_req = 393879 
total_req = 437214 

Dual Bus Interface Util: 
issued_total_row = 137724 
issued_total_col = 437214 
Row_Bus_Util =  0.129947 
CoL_Bus_Util = 0.412524 
Either_Row_CoL_Bus_Util = 0.522677 
Issued_on_Two_Bus_Simul_Util = 0.019793 
issued_two_Eff = 0.037869 
queue_avg = 38.414478 


dram_util_bins: 0 0 0 0 0 0 0 0 0 0
dram_eff_bins: 0 0 0 0 0 0 0 0 0 0
mrqq: max=64 avg=38.4145
Memory Partition 1: 
Cache L2_bank_002:
MSHR contents

Cache L2_bank_003:
MSHR contents

In Dram Latency Queue (total = 0): 
DRAM[1]: 16 bks, busW=4 BL=8 CL=12, tRRD=6 tCCD=2, tRCD=12 tRAS=28 tRP=12 tRC=40
n_cmd=1059851 n_nop=507867 n_act=67552 n_pre=67536 n_ref_event=94082018629744 n_req=393958 n_rd=350624 n_rd_L2_A=0 n_write=0 n_wr_bk=86668 bw_util=0.8252
n_activity=1048239 dram_eff=0.8343
bk0: 22060a 576838i bk1: 22044a 574405i bk2: 22088a 576154i bk3: 22220a 581296i bk4: 21936a 576467i bk5: 21992a 581780i bk6: 21896a 570352i bk7: 21908a 584104i bk8: 21900a 571724i bk9: 21768a 580583i bk10: 21772a 580357i bk11: 21768a 575749i bk12: 21840a 571764i bk13: 21876a 576656i bk14: 21796a 570521i bk15: 21760a 571322i 

------------------------------------------------------------------------

Row_Buffer_Locality = 0.828530
Row_Buffer_Locality_read = 0.862682
Row_Buffer_Locality_write = 0.552199
Bank_Level_Parallism = 7.738323
Bank_Level_Parallism_Col = 6.514182
Bank_Level_Parallism_Ready = 2.521062
write_to_read_ratio_blp_rw_average = 0.469757
GrpLevelPara = 3.473925 

BW Util details:
bwutil = 0.825195 
total_CMD = 1059851 
util_bw = 874584 
Wasted_Col = 166282 
Wasted_Row = 4264 
Idle = 14721 

BW Util Bottlenecks: 
RCDc_limit = 109503 
RCDWRc_limit = 24162 
WTRc_limit = 177822 
RTWc_limit = 506651 
CCDLc_limit = 141009 
rwq = 0 
CCDLc_limit_alone = 76503 
WTRc_limit_alone = 167507 
RTWc_limit_alone = 452460 

Commands details: 
total_CMD = 1059851 
n_nop = 507867 
Read = 350624 
Write = 0 
L2_Alloc = 0 
L2_WB = 86668 
n_act = 67552 
n_pre = 67536 
n_ref = 94082018629744 
n_req = 393958 
total_req = 437292 

Dual Bus Interface Util: 
issued_total_row = 135088 
issued_total_col = 437292 
Row_Bus_Util =  0.127459 
CoL_Bus_Util = 0.412598 
Either_Row_CoL_Bus_Util = 0.520813 
Issued_on_Two_Bus_Simul_Util = 0.019244 
issued_two_Eff = 0.036950 
queue_avg = 37.444519 


dram_util_bins: 0 0 0 0 0 0 0 0 0 0
dram_eff_bins: 0 0 0 0 0 0 0 0 0 0
mrqq: max=64 avg=37.4445
Memory Partition 2: 
Cache L2_bank_004:
MSHR contents

Cache L2_bank_005:
MSHR contents

In Dram Latency Queue (total = 0): 
DRAM[2]: 16 bks, busW=4 BL=8 CL=12, tRRD=6 tCCD=2, tRCD=12 tRAS=28 tRP=12 tRC=40
n_cmd=1059851 n_nop=504553 n_act=69709 n_pre=69693 n_ref_event=0 n_req=393898 n_rd=350556 n_rd_L2_A=0 n_write=0 n_wr_bk=86684 bw_util=0.8251
n_activity=1048018 dram_eff=0.8344
bk0: 22096a 575672i bk1: 22064a 562543i bk2: 22080a 580003i bk3: 22088a 561344i bk4: 21940a 575342i bk5: 21956a 559098i bk6: 21932a 562427i bk7: 21876a 547238i bk8: 21904a 568076i bk9: 21764a 551074i bk10: 21764a 570757i bk11: 21776a 564083i bk12: 21860a 566054i bk13: 21888a 544061i bk14: 21768a 567909i bk15: 21800a 553355i 

------------------------------------------------------------------------

Row_Buffer_Locality = 0.823028
Row_Buffer_Locality_read = 0.858031
Row_Buffer_Locality_write = 0.539915
Bank_Level_Parallism = 7.945376
Bank_Level_Parallism_Col = 0.984834
Bank_Level_Parallism_Ready = 2.573057
write_to_read_ratio_blp_rw_average = 0.000000
GrpLevelPara = 0.000000 

BW Util details:
bwutil = 0.825097 
total_CMD = 1059851 
util_bw = 874480 
Wasted_Col = 165816 
Wasted_Row = 4169 
Idle = 15386 

BW Util Bottlenecks: 
RCDc_limit = 112483 
RCDWRc_limit = 24157 
WTRc_limit = 183772 
RTWc_limit = 524195 
CCDLc_limit = 141085 
rwq = 0 
CCDLc_limit_alone = 75361 
WTRc_limit_alone = 173197 
RTWc_limit_alone = 469046 

Commands details: 
total_CMD = 1059851 
n_nop = 504553 
Read = 350556 
Write = 0 
L2_Alloc = 0 
L2_WB = 86684 
n_act = 69709 
n_pre = 69693 
n_ref = 0 
n_req = 393898 
total_req = 437240 

Dual Bus Interface Util: 
issued_total_row = 139402 
issued_total_col = 437240 
Row_Bus_Util =  0.131530 
CoL_Bus_Util = 0.412549 
Either_Row_CoL_Bus_Util = 0.523940 
Issued_on_Two_Bus_Simul_Util = 0.020139 
issued_two_Eff = 0.038437 
queue_avg = 38.441261 


dram_util_bins: 0 0 0 0 0 0 0 0 0 0
dram_eff_bins: 0 0 0 0 0 0 0 0 0 0
mrqq: max=64 avg=38.4413
Memory Partition 3: 
Cache L2_bank_006:
MSHR contents

Cache L2_bank_007:
MSHR contents

In Dram Latency Queue (total = 0): 
DRAM[3]: 16 bks, busW=4 BL=8 CL=12, tRRD=6 tCCD=2, tRCD=12 tRAS=28 tRP=12 tRC=40
n_cmd=1059851 n_nop=506675 n_act=68260 n_pre=68244 n_ref_event=0 n_req=393950 n_rd=350612 n_rd_L2_A=0 n_write=0 n_wr_bk=86676 bw_util=0.8252
n_activity=1047646 dram_eff=0.8348
bk0: 22064a 581929i bk1: 22064a 563821i bk2: 22136a 585516i bk3: 22080a 568068i bk4: 21960a 583533i bk5: 21956a 560970i bk6: 21908a 588048i bk7: 21912a 550025i bk8: 21900a 577398i bk9: 21760a 567010i bk10: 21764a 579491i bk11: 21772a 575541i bk12: 21880a 577496i bk13: 21904a 556297i bk14: 21760a 573303i bk15: 21792a 567969i 

------------------------------------------------------------------------

Row_Buffer_Locality = 0.826729
Row_Buffer_Locality_read = 0.861608
Row_Buffer_Locality_write = 0.544557
Bank_Level_Parallism = 7.801906
Bank_Level_Parallism_Col = 6.559458
Bank_Level_Parallism_Ready = 2.547999
write_to_read_ratio_blp_rw_average = 0.467883
GrpLevelPara = 3.483322 

BW Util details:
bwutil = 0.825188 
total_CMD = 1059851 
util_bw = 874576 
Wasted_Col = 166120 
Wasted_Row = 4160 
Idle = 14995 

BW Util Bottlenecks: 
RCDc_limit = 110256 
RCDWRc_limit = 24526 
WTRc_limit = 182953 
RTWc_limit = 507682 
CCDLc_limit = 139814 
rwq = 0 
CCDLc_limit_alone = 75835 
WTRc_limit_alone = 172293 
RTWc_limit_alone = 454363 

Commands details: 
total_CMD = 1059851 
n_nop = 506675 
Read = 350612 
Write = 0 
L2_Alloc = 0 
L2_WB = 86676 
n_act = 68260 
n_pre = 68244 
n_ref = 0 
n_req = 393950 
total_req = 437288 

Dual Bus Interface Util: 
issued_total_row = 136504 
issued_total_col = 437288 
Row_Bus_Util =  0.128795 
CoL_Bus_Util = 0.412594 
Either_Row_CoL_Bus_Util = 0.521937 
Issued_on_Two_Bus_Simul_Util = 0.019452 
issued_two_Eff = 0.037268 
queue_avg = 37.446011 


dram_util_bins: 0 0 0 0 0 0 0 0 0 0
dram_eff_bins: 0 0 0 0 0 0 0 0 0 0
mrqq: max=64 avg=37.446
Memory Partition 4: 
Cache L2_bank_008:
MSHR contents

Cache L2_bank_009:
MSHR contents

In Dram Latency Queue (total = 0): 
DRAM[4]: 16 bks, busW=4 BL=8 CL=12, tRRD=6 tCCD=2, tRCD=12 tRAS=28 tRP=12 tRC=40
n_cmd=1059851 n_nop=504947 n_act=69535 n_pre=69519 n_ref_event=227392 n_req=393876 n_rd=350536 n_rd_L2_A=0 n_write=0 n_wr_bk=86680 bw_util=0.8251
n_activity=1046863 dram_eff=0.8353
bk0: 22072a 577118i bk1: 22120a 563902i bk2: 22132a 576576i bk3: 22096a 571447i bk4: 21972a 571933i bk5: 21948a 560905i bk6: 21912a 556043i bk7: 21892a 557161i bk8: 21796a 577732i bk9: 21760a 564367i bk10: 21764a 575520i bk11: 21768a 556968i bk12: 21836a 551918i bk13: 21928a 551229i bk14: 21760a 564808i bk15: 21780a 552761i 

------------------------------------------------------------------------

Row_Buffer_Locality = 0.823460
Row_Buffer_Locality_read = 0.858226
Row_Buffer_Locality_write = 0.542270
Bank_Level_Parallism = 7.930548
Bank_Level_Parallism_Col = 6.659756
Bank_Level_Parallism_Ready = 2.568467
write_to_read_ratio_blp_rw_average = 0.471615
GrpLevelPara = 3.503343 

BW Util details:
bwutil = 0.825052 
total_CMD = 1059851 
util_bw = 874432 
Wasted_Col = 165054 
Wasted_Row = 4113 
Idle = 16252 

BW Util Bottlenecks: 
RCDc_limit = 111913 
RCDWRc_limit = 24384 
WTRc_limit = 180094 
RTWc_limit = 523995 
CCDLc_limit = 140342 
rwq = 0 
CCDLc_limit_alone = 75279 
WTRc_limit_alone = 169763 
RTWc_limit_alone = 469263 

Commands details: 
total_CMD = 1059851 
n_nop = 504947 
Read = 350536 
Write = 0 
L2_Alloc = 0 
L2_WB = 86680 
n_act = 69535 
n_pre = 69519 
n_ref = 227392 
n_req = 393876 
total_req = 437216 

Dual Bus Interface Util: 
issued_total_row = 139054 
issued_total_col = 437216 
Row_Bus_Util =  0.131201 
CoL_Bus_Util = 0.412526 
Either_Row_CoL_Bus_Util = 0.523568 
Issued_on_Two_Bus_Simul_Util = 0.020159 
issued_two_Eff = 0.038504 
queue_avg = 38.428871 


dram_util_bins: 0 0 0 0 0 0 0 0 0 0
dram_eff_bins: 0 0 0 0 0 0 0 0 0 0
mrqq: max=64 avg=38.4289
Memory Partition 5: 
Cache L2_bank_010:
MSHR contents

Cache L2_bank_011:
MSHR contents

In Dram Latency Queue (total = 0): 
DRAM[5]: 16 bks, busW=4 BL=8 CL=12, tRRD=6 tCCD=2, tRCD=12 tRAS=28 tRP=12 tRC=40
n_cmd=1059851 n_nop=507176 n_act=67923 n_pre=67907 n_ref_event=0 n_req=393967 n_rd=350628 n_rd_L2_A=0 n_write=0 n_wr_bk=86678 bw_util=0.8252
n_activity=1047952 dram_eff=0.8346
bk0: 22068a 578662i bk1: 22052a 577716i bk2: 22156a 579523i bk3: 22140a 572056i bk4: 21976a 572538i bk5: 21960a 575330i bk6: 21888a 561948i bk7: 21900a 575884i bk8: 21804a 576676i bk9: 21772a 571287i bk10: 21772a 579667i bk11: 21764a 568345i bk12: 21856a 568109i bk13: 21960a 563134i bk14: 21760a 574025i bk15: 21800a 560017i 

------------------------------------------------------------------------

Row_Buffer_Locality = 0.827592
Row_Buffer_Locality_read = 0.861634
Row_Buffer_Locality_write = 0.552182
Bank_Level_Parallism = 7.802356
Bank_Level_Parallism_Col = 1.000000
Bank_Level_Parallism_Ready = 2.536026
write_to_read_ratio_blp_rw_average = 0.000000
GrpLevelPara = 0.000000 

BW Util details:
bwutil = 0.825222 
total_CMD = 1059851 
util_bw = 874612 
Wasted_Col = 166110 
Wasted_Row = 4176 
Idle = 14953 

BW Util Bottlenecks: 
RCDc_limit = 110316 
RCDWRc_limit = 23850 
WTRc_limit = 177770 
RTWc_limit = 513959 
CCDLc_limit = 141186 
rwq = 0 
CCDLc_limit_alone = 76216 
WTRc_limit_alone = 167720 
RTWc_limit_alone = 459039 

Commands details: 
total_CMD = 1059851 
n_nop = 507176 
Read = 350628 
Write = 0 
L2_Alloc = 0 
L2_WB = 86678 
n_act = 67923 
n_pre = 67907 
n_ref = 0 
n_req = 393967 
total_req = 437306 

Dual Bus Interface Util: 
issued_total_row = 135830 
issued_total_col = 437306 
Row_Bus_Util =  0.128160 
CoL_Bus_Util = 0.412611 
Either_Row_CoL_Bus_Util = 0.521465 
Issued_on_Two_Bus_Simul_Util = 0.019306 
issued_two_Eff = 0.037022 
queue_avg = 37.989483 


dram_util_bins: 0 0 0 0 0 0 0 0 0 0
dram_eff_bins: 0 0 0 0 0 0 0 0 0 0
mrqq: max=64 avg=37.9895

========= L2 cache stats =========
L2_cache_bank[0]: Access = 473376, Miss = 262608, Miss_rate = 0.555, Pending_hits = 9658, Reservation_fails = 528
L2_cache_bank[1]: Access = 493016, Miss = 262688, Miss_rate = 0.533, Pending_hits = 10988, Reservation_fails = 156
L2_cache_bank[2]: Access = 492696, Miss = 262664, Miss_rate = 0.533, Pending_hits = 10996, Reservation_fails = 361
L2_cache_bank[3]: Access = 473544, Miss = 262712, Miss_rate = 0.555, Pending_hits = 7619, Reservation_fails = 158
L2_cache_bank[4]: Access = 492448, Miss = 262720, Miss_rate = 0.533, Pending_hits = 10840, Reservation_fails = 505
L2_cache_bank[5]: Access = 472888, Miss = 262604, Miss_rate = 0.555, Pending_hits = 9575, Reservation_fails = 149
L2_cache_bank[6]: Access = 473588, Miss = 262748, Miss_rate = 0.555, Pending_hits = 7712, Reservation_fails = 483
L2_cache_bank[7]: Access = 493628, Miss = 262632, Miss_rate = 0.532, Pending_hits = 10692, Reservation_fails = 141
L2_cache_bank[8]: Access = 473500, Miss = 262620, Miss_rate = 0.555, Pending_hits = 9529, Reservation_fails = 268
L2_cache_bank[9]: Access = 492404, Miss = 262684, Miss_rate = 0.533, Pending_hits = 11509, Reservation_fails = 137
L2_cache_bank[10]: Access = 493892, Miss = 262656, Miss_rate = 0.532, Pending_hits = 10789, Reservation_fails = 146
L2_cache_bank[11]: Access = 473768, Miss = 262740, Miss_rate = 0.555, Pending_hits = 8192, Reservation_fails = 182
L2_total_cache_accesses = 5798748
L2_total_cache_misses = 3152076
L2_total_cache_miss_rate = 0.5436
L2_total_cache_pending_hits = 118099
L2_total_cache_reservation_fails = 3214
L2_total_cache_breakdown:
	L2_cache_stats_breakdown[GLOBAL_ACC_R][HIT] = 2528085
	L2_cache_stats_breakdown[GLOBAL_ACC_R][HIT_RESERVED] = 117975
	L2_cache_stats_breakdown[GLOBAL_ACC_R][MISS] = 525863
	L2_cache_stats_breakdown[GLOBAL_ACC_R][RESERVATION_FAIL] = 1769
	L2_cache_stats_breakdown[GLOBAL_ACC_R][SECTOR_MISS] = 1577589
	L2_cache_stats_breakdown[LOCAL_ACC_R][HIT] = 0
	L2_cache_stats_breakdown[LOCAL_ACC_R][HIT_RESERVED] = 0
	L2_cache_stats_breakdown[LOCAL_ACC_R][MISS] = 0
	L2_cache_stats_breakdown[LOCAL_ACC_R][RESERVATION_FAIL] = 0
	L2_cache_stats_breakdown[LOCAL_ACC_R][SECTOR_MISS] = 0
	L2_cache_stats_breakdown[CONST_ACC_R][HIT] = 44
	L2_cache_stats_breakdown[CONST_ACC_R][HIT_RESERVED] = 12
	L2_cache_stats_breakdown[CONST_ACC_R][MISS] = 1
	L2_cache_stats_breakdown[CONST_ACC_R][RESERVATION_FAIL] = 159
	L2_cache_stats_breakdown[CONST_ACC_R][SECTOR_MISS] = 3
	L2_cache_stats_breakdown[TEXTURE_ACC_R][HIT] = 0
	L2_cache_stats_breakdown[TEXTURE_ACC_R][HIT_RESERVED] = 0
	L2_cache_stats_breakdown[TEXTURE_ACC_R][MISS] = 0
	L2_cache_stats_breakdown[TEXTURE_ACC_R][RESERVATION_FAIL] = 0
	L2_cache_stats_breakdown[TEXTURE_ACC_R][SECTOR_MISS] = 0
	L2_cache_stats_breakdown[GLOBAL_ACC_W][HIT] = 0
	L2_cache_stats_breakdown[GLOBAL_ACC_W][HIT_RESERVED] = 0
	L2_cache_stats_breakdown[GLOBAL_ACC_W][MISS] = 262144
	L2_cache_stats_breakdown[GLOBAL_ACC_W][RESERVATION_FAIL] = 0
	L2_cache_stats_breakdown[GLOBAL_ACC_W][SECTOR_MISS] = 786432
	L2_cache_stats_breakdown[LOCAL_ACC_W][HIT] = 0
	L2_cache_stats_breakdown[LOCAL_ACC_W][HIT_RESERVED] = 0
	L2_cache_stats_breakdown[LOCAL_ACC_W][MISS] = 0
	L2_cache_stats_breakdown[LOCAL_ACC_W][RESERVATION_FAIL] = 0
	L2_cache_stats_breakdown[LOCAL_ACC_W][SECTOR_MISS] = 0
	L2_cache_stats_breakdown[L1_WRBK_ACC][HIT] = 0
	L2_cache_stats_breakdown[L1_WRBK_ACC][HIT_RESERVED] = 0
	L2_cache_stats_breakdown[L1_WRBK_ACC][MISS] = 0
	L2_cache_stats_breakdown[L1_WRBK_ACC][RESERVATION_FAIL] = 0
	L2_cache_stats_breakdown[L1_WRBK_ACC][SECTOR_MISS] = 0
	L2_cache_stats_breakdown[L2_WRBK_ACC][HIT] = 0
	L2_cache_stats_breakdown[L2_WRBK_ACC][HIT_RESERVED] = 0
	L2_cache_stats_breakdown[L2_WRBK_ACC][MISS] = 0
	L2_cache_stats_breakdown[L2_WRBK_ACC][RESERVATION_FAIL] = 0
	L2_cache_stats_breakdown[L2_WRBK_ACC][SECTOR_MISS] = 0
	L2_cache_stats_breakdown[INST_ACC_R][HIT] = 444
	L2_cache_stats_breakdown[INST_ACC_R][HIT_RESERVED] = 112
	L2_cache_stats_breakdown[INST_ACC_R][MISS] = 11
	L2_cache_stats_breakdown[INST_ACC_R][RESERVATION_FAIL] = 1286
	L2_cache_stats_breakdown[INST_ACC_R][SECTOR_MISS] = 33
	L2_cache_stats_breakdown[L1_WR_ALLOC_R][HIT] = 0
	L2_cache_stats_breakdown[L1_WR_ALLOC_R][HIT_RESERVED] = 0
	L2_cache_stats_breakdown[L1_WR_ALLOC_R][MISS] = 0
	L2_cache_stats_breakdown[L1_WR_ALLOC_R][RESERVATION_FAIL] = 0
	L2_cache_stats_breakdown[L1_WR_ALLOC_R][SECTOR_MISS] = 0
	L2_cache_stats_breakdown[L2_WR_ALLOC_R][HIT] = 0
	L2_cache_stats_breakdown[L2_WR_ALLOC_R][HIT_RESERVED] = 0
	L2_cache_stats_breakdown[L2_WR_ALLOC_R][MISS] = 0
	L2_cache_stats_breakdown[L2_WR_ALLOC_R][RESERVATION_FAIL] = 0
	L2_cache_stats_breakdown[L2_WR_ALLOC_R][SECTOR_MISS] = 0
	L2_cache_stats_breakdown[GLOBAL_ACC_R][TOTAL_ACCESS] = 4749512
	L2_cache_stats_breakdown[CONST_ACC_R][TOTAL_ACCESS] = 60
	L2_cache_stats_breakdown[GLOBAL_ACC_W][TOTAL_ACCESS] = 1048576
	L2_cache_stats_breakdown[INST_ACC_R][TOTAL_ACCESS] = 600
L2_total_cache_reservation_fail_breakdown:
	L2_cache_stats_fail_breakdown[GLOBAL_ACC_R][MISS_QUEUE_FULL] = 1769
	L2_cache_stats_fail_breakdown[CONST_ACC_R][MSHR_MERGE_ENRTY_FAIL] = 159
	L2_cache_stats_fail_breakdown[INST_ACC_R][MSHR_MERGE_ENRTY_FAIL] = 1286
L2_cache_data_port_util = 0.201
L2_cache_fill_port_util = 0.153

icnt_total_pkts_mem_to_simt=5798748
icnt_total_pkts_simt_to_mem=2236134
LD_mem_lat_dist  0 0 0 0 0 0 0 0 0 0 0 0 0 0 0 0 0 0 0 0 0 0 0 0 0 0 0
ST_mem_lat_dist  0 0 0 0 0 0 0 0 0 0 0 0 0 0 0 0 0 0 0 0 0 0 0 0 0 0 0
----------------------------Interconnect-DETAILS--------------------------------
Class 0:
Packet latency average = 9.89718
	minimum = 5
	maximum = 121
Network latency average = 9.83455
	minimum = 5
	maximum = 121
Slowest packet = 5478356
Flit latency average = 9.29204
	minimum = 5
	maximum = 121
Slowest flit = 6072335
Fragmentation average = 0
	minimum = 0
	maximum = 0
Injected packet rate average = 0.23506
	minimum = 0.0824027 (at node 1)
	maximum = 0.433416 (at node 16)
Accepted packet rate average = 0.23506
	minimum = 0.102444 (at node 20)
	maximum = 0.348308 (at node 2)
Injected flit rate average = 0.26048
	minimum = 0.12731 (at node 1)
	maximum = 0.433416 (at node 16)
Accepted flit rate average= 0.26048
	minimum = 0.159646 (at node 20)
	maximum = 0.348308 (at node 2)
Injected packet length average = 1.10814
Accepted packet length average = 1.10814
Total in-flight flits = 0 (0 measured)
====== Overall Traffic Statistics ======
====== Traffic class 0 ======
Packet latency average = 10.0088 (4 samples)
	minimum = 5 (4 samples)
	maximum = 122.5 (4 samples)
Network latency average = 9.94546 (4 samples)
	minimum = 5 (4 samples)
	maximum = 119 (4 samples)
Flit latency average = 9.39053 (4 samples)
	minimum = 5 (4 samples)
	maximum = 119 (4 samples)
Fragmentation average = 0 (4 samples)
	minimum = 0 (4 samples)
	maximum = 0 (4 samples)
Injected packet rate average = 0.234055 (4 samples)
	minimum = 0.0816174 (4 samples)
	maximum = 0.431747 (4 samples)
Accepted packet rate average = 0.234055 (4 samples)
	minimum = 0.102719 (4 samples)
	maximum = 0.347053 (4 samples)
Injected flit rate average = 0.259449 (4 samples)
	minimum = 0.125941 (4 samples)
	maximum = 0.431747 (4 samples)
Accepted flit rate average = 0.259449 (4 samples)
	minimum = 0.159852 (4 samples)
	maximum = 0.347053 (4 samples)
Injected packet size average = 1.1085 (4 samples)
Accepted packet size average = 1.1085 (4 samples)
Hops average = 1 (4 samples)
----------------------------END-of-Interconnect-DETAILS-------------------------


gpgpu_simulation_time = 0 days, 0 hrs, 14 min, 18 sec (858 sec)
gpgpu_simulation_rate = 487624 (inst/sec)
gpgpu_simulation_rate = 1336 (cycle/sec)
gpgpu_silicon_slowdown = 748502x
GPGPU-Sim: synchronize waiting for inactive GPU simulation
GPGPU-Sim API: Stream Manager State
GPGPU-Sim: detected inactive GPU simulation thread
Time: 856.380 (s)
Accuracy: 1.283636e-05
GPGPU-Sim: *** exit detected ***
