

        *** GPGPU-Sim Simulator Version 4.0.0  [build gpgpu-sim_git-commit-90ec3399763d7c8512cfe7dc193473086c38ca38_modified_0.0] ***


GPGPU-Sim PTX: simulation mode 0 (can change with PTX_SIM_MODE_FUNC environment variable:
               1=functional simulation only, 0=detailed performance simulator)
GPGPU-Sim PTX: overriding embedded ptx with ptx file (PTX_SIM_USE_PTX_FILE is set)
GPGPU-Sim: Configuration options:

-save_embedded_ptx                      0 # saves ptx files embedded in binary as <n>.ptx
-keep                                   0 # keep intermediate files created by GPGPU-Sim when interfacing with external programs
-gpgpu_ptx_save_converted_ptxplus                    0 # Saved converted ptxplus to a file
-gpgpu_occupancy_sm_number                   20 # The SM number to pass to ptxas when getting register usage for computing GPU occupancy. This parameter is required in the config.
-ptx_opcode_latency_int      4,13,4,5,145,32 # Opcode latencies for integers <ADD,MAX,MUL,MAD,DIV,SHFL>Default 1,1,19,25,145,32
-ptx_opcode_latency_fp          4,13,4,5,39 # Opcode latencies for single precision floating points <ADD,MAX,MUL,MAD,DIV>Default 1,1,1,1,30
-ptx_opcode_latency_dp         8,19,8,8,330 # Opcode latencies for double precision floating points <ADD,MAX,MUL,MAD,DIV>Default 8,8,8,8,335
-ptx_opcode_latency_sfu                    8 # Opcode latencies for SFU instructionsDefault 8
-ptx_opcode_latency_tesnor                   64 # Opcode latencies for Tensor instructionsDefault 64
-ptx_opcode_initiation_int          1,2,2,1,8,4 # Opcode initiation intervals for integers <ADD,MAX,MUL,MAD,DIV,SHFL>Default 1,1,4,4,32,4
-ptx_opcode_initiation_fp            1,2,1,1,4 # Opcode initiation intervals for single precision floating points <ADD,MAX,MUL,MAD,DIV>Default 1,1,1,1,5
-ptx_opcode_initiation_dp         8,16,8,8,130 # Opcode initiation intervals for double precision floating points <ADD,MAX,MUL,MAD,DIV>Default 8,8,8,8,130
-ptx_opcode_initiation_sfu                    8 # Opcode initiation intervals for sfu instructionsDefault 8
-ptx_opcode_initiation_tensor                   64 # Opcode initiation intervals for tensor instructionsDefault 64
-cdp_latency         7200,8000,100,12000,1600 # CDP API latency <cudaStreamCreateWithFlags, cudaGetParameterBufferV2_init_perWarp, cudaGetParameterBufferV2_perKernel, cudaLaunchDeviceV2_init_perWarp, cudaLaunchDevicV2_perKernel>Default 7200,8000,100,12000,1600
-network_mode                           1 # Interconnection network mode
-inter_config_file   config_fermi_islip.icnt # Interconnection network config file
-icnt_in_buffer_limit                   64 # in_buffer_limit
-icnt_out_buffer_limit                   64 # out_buffer_limit
-icnt_subnets                           2 # subnets
-icnt_arbiter_algo                      1 # arbiter_algo
-icnt_verbose                           0 # inct_verbose
-icnt_grant_cycles                      1 # grant_cycles
-gpgpu_ptx_use_cuobjdump                    1 # Use cuobjdump to extract ptx and sass from binaries
-gpgpu_experimental_lib_support                    0 # Try to extract code from cuda libraries [Broken because of unknown cudaGetExportTable]
-checkpoint_option                      0 #  checkpointing flag (0 = no checkpoint)
-checkpoint_kernel                      1 #  checkpointing during execution of which kernel (1- 1st kernel)
-checkpoint_CTA                         0 #  checkpointing after # of CTA (< less than total CTA)
-resume_option                          0 #  resume flag (0 = no resume)
-resume_kernel                          0 #  Resume from which kernel (1= 1st kernel)
-resume_CTA                             0 #  resume from which CTA 
-checkpoint_CTA_t                       0 #  resume from which CTA 
-checkpoint_insn_Y                      0 #  resume from which CTA 
-gpgpu_ptx_convert_to_ptxplus                    0 # Convert SASS (native ISA) to ptxplus and run ptxplus
-gpgpu_ptx_force_max_capability                   20 # Force maximum compute capability
-gpgpu_ptx_inst_debug_to_file                    0 # Dump executed instructions' debug information to file
-gpgpu_ptx_inst_debug_file       inst_debug.txt # Executed instructions' debug output file
-gpgpu_ptx_inst_debug_thread_uid                    1 # Thread UID for executed instructions' debug output
-gpgpu_simd_model                       1 # 1 = post-dominator
-gpgpu_shader_core_pipeline              1536:32 # shader core pipeline config, i.e., {<nthread>:<warpsize>}
-gpgpu_tex_cache:l1  N:4:128:24,L:R:m:N:L,T:128:4,128:2 # per-shader L1 texture cache  (READ-ONLY) config  {<nsets>:<bsize>:<assoc>,<rep>:<wr>:<alloc>:<wr_alloc>,<mshr>:<N>:<merge>,<mq>:<rf>}
-gpgpu_const_cache:l1 N:64:64:2,L:R:f:N:L,S:2:32,4 # per-shader L1 constant memory cache  (READ-ONLY) config  {<nsets>:<bsize>:<assoc>,<rep>:<wr>:<alloc>:<wr_alloc>,<mshr>:<N>:<merge>,<mq>} 
-gpgpu_cache:il1     N:4:128:4,L:R:f:N:L,S:2:32,4 # shader L1 instruction cache config  {<nsets>:<bsize>:<assoc>,<rep>:<wr>:<alloc>:<wr_alloc>,<mshr>:<N>:<merge>,<mq>} 
-gpgpu_cache:dl1     N:32:128:4,L:L:m:N:H,S:64:8,8 # per-shader L1 data cache config  {<nsets>:<bsize>:<assoc>,<rep>:<wr>:<alloc>:<wr_alloc>,<mshr>:<N>:<merge>,<mq> | none}
-gpgpu_l1_banks                         1 # The number of L1 cache banks
-gpgpu_l1_banks_byte_interleaving                   32 # l1 banks byte interleaving granularity
-gpgpu_l1_banks_hashing_function                    0 # l1 banks hashing function
-gpgpu_l1_latency                      35 # L1 Hit Latency
-gpgpu_smem_latency                    26 # smem Latency
-gpgpu_cache:dl1PrefL1                 none # per-shader L1 data cache config  {<nsets>:<bsize>:<assoc>,<rep>:<wr>:<alloc>:<wr_alloc>,<mshr>:<N>:<merge>,<mq> | none}
-gpgpu_cache:dl1PrefShared                 none # per-shader L1 data cache config  {<nsets>:<bsize>:<assoc>,<rep>:<wr>:<alloc>:<wr_alloc>,<mshr>:<N>:<merge>,<mq> | none}
-gpgpu_gmem_skip_L1D                    0 # global memory access skip L1D cache (implements -Xptxas -dlcm=cg, default=no skip)
-gpgpu_perfect_mem                      0 # enable perfect memory mode (no cache miss)
-n_regfile_gating_group                    4 # group of lanes that should be read/written together)
-gpgpu_clock_gated_reg_file                    0 # enable clock gated reg file for power calculations
-gpgpu_clock_gated_lanes                    0 # enable clock gated lanes for power calculations
-gpgpu_shader_registers                32768 # Number of registers per shader core. Limits number of concurrent CTAs. (default 8192)
-gpgpu_registers_per_block                 8192 # Maximum number of registers per CTA. (default 8192)
-gpgpu_ignore_resources_limitation                    0 # gpgpu_ignore_resources_limitation (default 0)
-gpgpu_shader_cta                       8 # Maximum number of concurrent CTAs in shader (default 8)
-gpgpu_num_cta_barriers                   16 # Maximum number of named barriers per CTA (default 16)
-gpgpu_n_clusters                      15 # number of processing clusters
-gpgpu_n_cores_per_cluster                    1 # number of simd cores per cluster
-gpgpu_n_cluster_ejection_buffer_size                   32 # number of packets in ejection buffer
-gpgpu_n_ldst_response_buffer_size                    2 # number of response packets in ld/st unit ejection buffer
-gpgpu_shmem_per_block                49152 # Size of shared memory per thread block or CTA (default 48kB)
-gpgpu_shmem_size                   49152 # Size of shared memory per shader core (default 16kB)
-gpgpu_adaptive_cache_config                    0 # adaptive_cache_config
-gpgpu_shmem_sizeDefault                49152 # Size of shared memory per shader core (default 16kB)
-gpgpu_shmem_size_PrefL1                16384 # Size of shared memory per shader core (default 16kB)
-gpgpu_shmem_size_PrefShared                16384 # Size of shared memory per shader core (default 16kB)
-gpgpu_shmem_num_banks                   32 # Number of banks in the shared memory in each shader core (default 16)
-gpgpu_shmem_limited_broadcast                    0 # Limit shared memory to do one broadcast per cycle (default on)
-gpgpu_shmem_warp_parts                    1 # Number of portions a warp is divided into for shared memory bank conflict check 
-gpgpu_mem_unit_ports                    1 # The number of memory transactions allowed per core cycle
-gpgpu_shmem_warp_parts                    1 # Number of portions a warp is divided into for shared memory bank conflict check 
-gpgpu_warpdistro_shader                   -1 # Specify which shader core to collect the warp size distribution from
-gpgpu_warp_issue_shader                    0 # Specify which shader core to collect the warp issue distribution from
-gpgpu_local_mem_map                    1 # Mapping from local memory space address to simulated GPU physical address space (default = enabled)
-gpgpu_num_reg_banks                   16 # Number of register banks (default = 8)
-gpgpu_reg_bank_use_warp_id                    0 # Use warp ID in mapping registers to banks (default = off)
-gpgpu_sub_core_model                    0 # Sub Core Volta/Pascal model (default = off)
-gpgpu_enable_specialized_operand_collector                    1 # enable_specialized_operand_collector
-gpgpu_operand_collector_num_units_sp                    6 # number of collector units (default = 4)
-gpgpu_operand_collector_num_units_dp                    0 # number of collector units (default = 0)
-gpgpu_operand_collector_num_units_sfu                    8 # number of collector units (default = 4)
-gpgpu_operand_collector_num_units_int                    0 # number of collector units (default = 0)
-gpgpu_operand_collector_num_units_tensor_core                    4 # number of collector units (default = 4)
-gpgpu_operand_collector_num_units_mem                    2 # number of collector units (default = 2)
-gpgpu_operand_collector_num_units_gen                    0 # number of collector units (default = 0)
-gpgpu_operand_collector_num_in_ports_sp                    2 # number of collector unit in ports (default = 1)
-gpgpu_operand_collector_num_in_ports_dp                    0 # number of collector unit in ports (default = 0)
-gpgpu_operand_collector_num_in_ports_sfu                    1 # number of collector unit in ports (default = 1)
-gpgpu_operand_collector_num_in_ports_int                    0 # number of collector unit in ports (default = 0)
-gpgpu_operand_collector_num_in_ports_tensor_core                    1 # number of collector unit in ports (default = 1)
-gpgpu_operand_collector_num_in_ports_mem                    1 # number of collector unit in ports (default = 1)
-gpgpu_operand_collector_num_in_ports_gen                    0 # number of collector unit in ports (default = 0)
-gpgpu_operand_collector_num_out_ports_sp                    2 # number of collector unit in ports (default = 1)
-gpgpu_operand_collector_num_out_ports_dp                    0 # number of collector unit in ports (default = 0)
-gpgpu_operand_collector_num_out_ports_sfu                    1 # number of collector unit in ports (default = 1)
-gpgpu_operand_collector_num_out_ports_int                    0 # number of collector unit in ports (default = 0)
-gpgpu_operand_collector_num_out_ports_tensor_core                    1 # number of collector unit in ports (default = 1)
-gpgpu_operand_collector_num_out_ports_mem                    1 # number of collector unit in ports (default = 1)
-gpgpu_operand_collector_num_out_ports_gen                    0 # number of collector unit in ports (default = 0)
-gpgpu_coalesce_arch                   20 # Coalescing arch (GT200 = 13, Fermi = 20)
-gpgpu_num_sched_per_core                    2 # Number of warp schedulers per core
-gpgpu_max_insn_issue_per_warp                    1 # Max number of instructions that can be issued per warp in one cycle by scheduler (either 1 or 2)
-gpgpu_dual_issue_diff_exec_units                    1 # should dual issue use two different execution unit resources (Default = 1)
-gpgpu_simt_core_sim_order                    1 # Select the simulation order of cores in a cluster (0=Fix, 1=Round-Robin)
-gpgpu_pipeline_widths 2,0,0,1,1,2,0,0,1,1,2 # Pipeline widths ID_OC_SP,ID_OC_DP,ID_OC_INT,ID_OC_SFU,ID_OC_MEM,OC_EX_SP,OC_EX_DP,OC_EX_INT,OC_EX_SFU,OC_EX_MEM,EX_WB,ID_OC_TENSOR_CORE,OC_EX_TENSOR_CORE
-gpgpu_tensor_core_avail                    0 # Tensor Core Available (default=0)
-gpgpu_num_sp_units                     2 # Number of SP units (default=1)
-gpgpu_num_dp_units                     0 # Number of DP units (default=0)
-gpgpu_num_int_units                    0 # Number of INT units (default=0)
-gpgpu_num_sfu_units                    1 # Number of SF units (default=1)
-gpgpu_num_tensor_core_units                    0 # Number of tensor_core units (default=1)
-gpgpu_num_mem_units                    1 # Number if ldst units (default=1) WARNING: not hooked up to anything
-gpgpu_scheduler                      gto # Scheduler configuration: < lrr | gto | two_level_active > If two_level_active:<num_active_warps>:<inner_prioritization>:<outer_prioritization>For complete list of prioritization values see shader.h enum scheduler_prioritization_typeDefault: gto
-gpgpu_concurrent_kernel_sm                    0 # Support concurrent kernels on a SM (default = disabled)
-gpgpu_perfect_inst_const_cache                    0 # perfect inst and const cache mode, so all inst and const hits in the cache(default = disabled)
-gpgpu_inst_fetch_throughput                    1 # the number of fetched intruction per warp each cycle
-gpgpu_reg_file_port_throughput                    1 # the number ports of the register file
-specialized_unit_1         0,4,4,4,4,BRA # specialized unit config {<enabled>,<num_units>:<latency>:<initiation>,<ID_OC_SPEC>:<OC_EX_SPEC>,<NAME>}
-specialized_unit_2         0,4,4,4,4,BRA # specialized unit config {<enabled>,<num_units>:<latency>:<initiation>,<ID_OC_SPEC>:<OC_EX_SPEC>,<NAME>}
-specialized_unit_3         0,4,4,4,4,BRA # specialized unit config {<enabled>,<num_units>:<latency>:<initiation>,<ID_OC_SPEC>:<OC_EX_SPEC>,<NAME>}
-specialized_unit_4         0,4,4,4,4,BRA # specialized unit config {<enabled>,<num_units>:<latency>:<initiation>,<ID_OC_SPEC>:<OC_EX_SPEC>,<NAME>}
-specialized_unit_5         0,4,4,4,4,BRA # specialized unit config {<enabled>,<num_units>:<latency>:<initiation>,<ID_OC_SPEC>:<OC_EX_SPEC>,<NAME>}
-specialized_unit_6         0,4,4,4,4,BRA # specialized unit config {<enabled>,<num_units>:<latency>:<initiation>,<ID_OC_SPEC>:<OC_EX_SPEC>,<NAME>}
-specialized_unit_7         0,4,4,4,4,BRA # specialized unit config {<enabled>,<num_units>:<latency>:<initiation>,<ID_OC_SPEC>:<OC_EX_SPEC>,<NAME>}
-specialized_unit_8         0,4,4,4,4,BRA # specialized unit config {<enabled>,<num_units>:<latency>:<initiation>,<ID_OC_SPEC>:<OC_EX_SPEC>,<NAME>}
-gpgpu_perf_sim_memcpy                    1 # Fill the L2 cache on memcpy
-gpgpu_simple_dram_model                    0 # simple_dram_model with fixed latency and BW
-gpgpu_dram_scheduler                    1 # 0 = fifo, 1 = FR-FCFS (defaul)
-gpgpu_dram_partition_queues          64:64:64:64 # i2$:$2d:d2$:$2i
-l2_ideal                               0 # Use a ideal L2 cache that always hit
-gpgpu_cache:dl2     S:64:128:8,L:B:m:L:L,A:256:4,4:0,32 # unified banked L2 data cache config  {<nsets>:<bsize>:<assoc>,<rep>:<wr>:<alloc>:<wr_alloc>,<mshr>:<N>:<merge>,<mq>}
-gpgpu_cache:dl2_texture_only                    0 # L2 cache used for texture only
-gpgpu_n_mem                            6 # number of memory modules (e.g. memory controllers) in gpu
-gpgpu_n_sub_partition_per_mchannel                    2 # number of memory subpartition in each memory module
-gpgpu_n_mem_per_ctrlr                    2 # number of memory chips per memory controller
-gpgpu_memlatency_stat                   14 # track and display latency statistics 0x2 enables MC, 0x4 enables queue logs
-gpgpu_frfcfs_dram_sched_queue_size                   64 # 0 = unlimited (default); # entries per chip
-gpgpu_dram_return_queue_size                  116 # 0 = unlimited (default); # entries per chip
-gpgpu_dram_buswidth                    4 # default = 4 bytes (8 bytes per cycle at DDR)
-gpgpu_dram_burst_length                    8 # Burst length of each DRAM request (default = 4 data bus cycle)
-dram_data_command_freq_ratio                    4 # Frequency ratio between DRAM data bus and command bus (default = 2 times, i.e. DDR)
-gpgpu_dram_timing_opt nbk=16:CCD=2:RRD=6:RCD=12:RAS=28:RP=12:RC=40: CL=12:WL=4:CDLR=5:WR=12:nbkgrp=4:CCDL=3:RTPL=2 # DRAM timing parameters = {nbk:tCCD:tRRD:tRCD:tRAS:tRP:tRC:CL:WL:tCDLR:tWR:nbkgrp:tCCDL:tRTPL}
-gpgpu_l2_rop_latency                  120 # ROP queue latency (default 85)
-dram_latency                         100 # DRAM latency (default 30)
-dram_dual_bus_interface                    0 # dual_bus_interface (default = 0) 
-dram_bnk_indexing_policy                    0 # dram_bnk_indexing_policy (0 = normal indexing, 1 = Xoring with the higher bits) (Default = 0)
-dram_bnkgrp_indexing_policy                    1 # dram_bnkgrp_indexing_policy (0 = take higher bits, 1 = take lower bits) (Default = 0)
-dram_seperate_write_queue_enable                    0 # Seperate_Write_Queue_Enable
-dram_write_queue_size             32:28:16 # Write_Queue_Size
-dram_elimnate_rw_turnaround                    0 # elimnate_rw_turnaround i.e set tWTR and tRTW = 0
-icnt_flit_size                        40 # icnt_flit_size
-gpgpu_mem_addr_mapping dramid@8;00000000.00000000.00000000.00000000.0000RRRR.RRRRRRRR.BBBCCCCB.CCSSSSSS # mapping memory address to dram model {dramid@<start bit>;<memory address map>}
-gpgpu_mem_addr_test                    0 # run sweep test to check address mapping for aliased address
-gpgpu_mem_address_mask                    1 # 0 = old addressing mask, 1 = new addressing mask, 2 = new add. mask + flipped bank sel and chip sel bits
-gpgpu_memory_partition_indexing                    0 # 0 = no indexing, 1 = bitwise xoring, 2 = IPoly, 3 = custom indexing
-gpuwattch_xml_file  gpuwattch_gtx480.xml # GPUWattch XML file
-power_simulation_enabled                    1 # Turn on power simulator (1=On, 0=Off)
-power_per_cycle_dump                    0 # Dump detailed power output each cycle
-power_trace_enabled                    0 # produce a file for the power trace (1=On, 0=Off)
-power_trace_zlevel                     6 # Compression level of the power trace output log (0=no comp, 9=highest)
-steady_power_levels_enabled                    0 # produce a file for the steady power levels (1=On, 0=Off)
-steady_state_definition                  8:4 # allowed deviation:number of samples
-gpgpu_max_cycle                        0 # terminates gpu simulation early (0 = no limit)
-gpgpu_max_insn                         0 # terminates gpu simulation early (0 = no limit)
-gpgpu_max_cta                          0 # terminates gpu simulation early (0 = no limit)
-gpgpu_max_completed_cta                    0 # terminates gpu simulation early (0 = no limit)
-gpgpu_runtime_stat                   500 # display runtime statistics such as dram utilization {<freq>:<flag>}
-liveness_message_freq                    1 # Minimum number of seconds between simulation liveness messages (0 = always print)
-gpgpu_compute_capability_major                    2 # Major compute capability version number
-gpgpu_compute_capability_minor                    0 # Minor compute capability version number
-gpgpu_flush_l1_cache                    1 # Flush L1 cache at the end of each kernel call
-gpgpu_flush_l2_cache                    0 # Flush L2 cache at the end of each kernel call
-gpgpu_deadlock_detect                    1 # Stop the simulation at deadlock (1=on (default), 0=off)
-gpgpu_ptx_instruction_classification                    0 # if enabled will classify ptx instruction types per kernel (Max 255 kernels now)
-gpgpu_ptx_sim_mode                     0 # Select between Performance (default) or Functional simulation (1)
-gpgpu_clock_domains 700.0:700.0:700.0:924.0 # Clock Domain Frequencies in MhZ {<Core Clock>:<ICNT Clock>:<L2 Clock>:<DRAM Clock>}
-gpgpu_max_concurrent_kernel                    8 # maximum kernels that can run concurrently on GPU
-gpgpu_cflog_interval                    0 # Interval between each snapshot in control flow logger
-visualizer_enabled                     0 # Turn on visualizer output (1=On, 0=Off)
-visualizer_outputfile                 NULL # Specifies the output log file for visualizer
-visualizer_zlevel                      6 # Compression level of the visualizer output log (0=no comp, 9=highest)
-gpgpu_stack_size_limit                 1024 # GPU thread stack size
-gpgpu_heap_size_limit              8388608 # GPU malloc heap size 
-gpgpu_runtime_sync_depth_limit                    2 # GPU device runtime synchronize depth
-gpgpu_runtime_pending_launch_count_limit                 2048 # GPU device runtime pending launch count
-trace_enabled                          0 # Turn on traces
-trace_components                    none # comma seperated list of traces to enable. Complete list found in trace_streams.tup. Default none
-trace_sampling_core                    0 # The core which is printed using CORE_DPRINTF. Default 0
-trace_sampling_memory_partition                   -1 # The memory partition which is printed using MEMPART_DPRINTF. Default -1 (i.e. all)
-enable_ptx_file_line_stats                    1 # Turn on PTX source line statistic profiling. (1 = On)
-ptx_line_stats_filename gpgpu_inst_stats.txt # Output file for PTX source line statistics.
-gpgpu_kernel_launch_latency                    0 # Kernel launch latency in cycles. Default: 0
-gpgpu_cdp_enabled                      0 # Turn on CDP
-gpgpu_TB_launch_latency                    0 # thread block launch latency in cycles. Default: 0
DRAM Timing Options:
nbk                                    16 # number of banks
CCD                                     2 # column to column delay
RRD                                     6 # minimal delay between activation of rows in different banks
RCD                                    12 # row to column delay
RAS                                    28 # time needed to activate row
RP                                     12 # time needed to precharge (deactivate) row
RC                                     40 # row cycle time
CDLR                                    5 # switching from write to read (changes tWTR)
WR                                     12 # last data-in to row precharge
CL                                     12 # CAS latency
WL                                      4 # Write latency
nbkgrp                                  4 # number of bank groups
CCDL                                    3 # column to column delay between accesses to different bank groups
RTPL                                    2 # read to precharge delay between accesses to different bank groups
Total number of memory sub partition = 12
addr_dec_mask[CHIP]  = 0000000000000000 	high:64 low:0
addr_dec_mask[BK]    = 000000000000e100 	high:16 low:8
addr_dec_mask[ROW]   = 000000000fff0000 	high:28 low:16
addr_dec_mask[COL]   = 0000000000001eff 	high:13 low:0
addr_dec_mask[BURST] = 000000000000003f 	high:6 low:0
sub_partition_id_mask = 0000000000000100
GPGPU-Sim uArch: clock freqs: 700000000.000000:700000000.000000:700000000.000000:924000000.000000
GPGPU-Sim uArch: clock periods: 0.00000000142857142857:0.00000000142857142857:0.00000000142857142857:0.00000000108225108225
*** Initializing Memory Statistics ***
GPGPU-Sim uArch: interconnect node map (shaderID+MemID to icntID)
GPGPU-Sim uArch: Memory nodes ID start from index: 15
GPGPU-Sim uArch:    0   1   2   3   4
GPGPU-Sim uArch:    5   6   7   8   9
GPGPU-Sim uArch:   10  11  12  13  14
GPGPU-Sim uArch:   15  16  17  18  19
GPGPU-Sim uArch:   20  21  22  23  24
GPGPU-Sim uArch:   25  26
GPGPU-Sim uArch: interconnect node reverse map (icntID to shaderID+MemID)
GPGPU-Sim uArch: Memory nodes start from ID: 15
GPGPU-Sim uArch:    0   1   2   3   4
GPGPU-Sim uArch:    5   6   7   8   9
GPGPU-Sim uArch:   10  11  12  13  14
GPGPU-Sim uArch:   15  16  17  18  19
GPGPU-Sim uArch:   20  21  22  23  24
GPGPU-Sim uArch:   25  26
af1dc9a4a824acc557ee292a621d8abf  /home/minigrim0/Documents/Lab_2/power_sim/bfs.gpu
Extracting PTX file and ptxas options    1: bfs.1.sm_30.ptx -arch=sm_30
GPGPU-Sim uArch: performance model initialization complete.
self exe links to: /home/minigrim0/Documents/Lab_2/power_sim/bfs.gpu
self exe links to: /home/minigrim0/Documents/Lab_2/power_sim/bfs.gpu
10.0
GPGPU-Sim PTX: __cudaRegisterFatBinary, fat_cubin_handle = 1, filename=default
self exe links to: /home/minigrim0/Documents/Lab_2/power_sim/bfs.gpu
Running md5sum using "md5sum /home/minigrim0/Documents/Lab_2/power_sim/bfs.gpu "
self exe links to: /home/minigrim0/Documents/Lab_2/power_sim/bfs.gpu
Extracting specific PTX file named bfs.1.sm_30.ptx 
GPGPU-Sim PTX: __cudaRegisterFunction _Z7Kernel2PbS_S_S_i : hostFun 0x0x562885910fa6, fat_cubin_handle = 1
GPGPU-Sim PTX: Parsing bfs.1.sm_30.ptx
GPGPU-Sim PTX: instruction assembly for function '_Z6KernelP4NodePiPbS2_S2_S1_i'...   done.
GPGPU-Sim PTX: instruction assembly for function '_Z7Kernel2PbS_S_S_i'...   done.
GPGPU-Sim PTX: finished parsing EMBEDDED .ptx file bfs.1.sm_30.ptx
GPGPU-Sim PTX: loading globals with explicit initializers... 
GPGPU-Sim PTX: finished loading globals (0 bytes total).
GPGPU-Sim PTX: loading constants with explicit initializers...  done.
GPGPU-Sim PTX: Loading PTXInfo from bfs.1.sm_30.ptx
GPGPU-Sim PTX: Kernel '_Z7Kernel2PbS_S_S_i' : regs=10, lmem=0, smem=0, cmem=356
GPGPU-Sim PTX: Kernel '_Z6KernelP4NodePiPbS2_S2_S1_i' : regs=21, lmem=0, smem=0, cmem=372
GPGPU-Sim PTX: __cudaRegisterFunction _Z6KernelP4NodePiPbS2_S2_S1_i : hostFun 0x0x562885910dbf, fat_cubin_handle = 1
Reading File
Read File
Copied Everything to GPU memory
Start traversing the tree
GPGPU-Sim PTX: Setting up arguments for 8 bytes starting at 0x7ffeceb54748..
GPGPU-Sim PTX: Setting up arguments for 8 bytes starting at 0x7ffeceb54740..
GPGPU-Sim PTX: Setting up arguments for 8 bytes starting at 0x7ffeceb54738..
GPGPU-Sim PTX: Setting up arguments for 8 bytes starting at 0x7ffeceb54730..
GPGPU-Sim PTX: Setting up arguments for 8 bytes starting at 0x7ffeceb54728..
GPGPU-Sim PTX: Setting up arguments for 8 bytes starting at 0x7ffeceb54720..
GPGPU-Sim PTX: Setting up arguments for 4 bytes starting at 0x7ffeceb547d0..

GPGPU-Sim PTX: cudaLaunch for 0x0x562885910dbf (mode=performance simulation) on stream 0
GPGPU-Sim PTX: finding reconvergence points for '_Z6KernelP4NodePiPbS2_S2_S1_i'...
GPGPU-Sim PTX: Finding dominators for '_Z6KernelP4NodePiPbS2_S2_S1_i'...
GPGPU-Sim PTX: Finding immediate dominators for '_Z6KernelP4NodePiPbS2_S2_S1_i'...
GPGPU-Sim PTX: Finding postdominators for '_Z6KernelP4NodePiPbS2_S2_S1_i'...
GPGPU-Sim PTX: Finding immediate postdominators for '_Z6KernelP4NodePiPbS2_S2_S1_i'...
GPGPU-Sim PTX: pre-decoding instructions for '_Z6KernelP4NodePiPbS2_S2_S1_i'...
GPGPU-Sim PTX: reconvergence points for _Z6KernelP4NodePiPbS2_S2_S1_i...
GPGPU-Sim PTX:  1 (potential) branch divergence @  PC=0x060 (bfs.1.sm_30.ptx:43) @%p1 bra BB0_7;
GPGPU-Sim PTX:    immediate post dominator      @  PC=0x1d8 (bfs.1.sm_30.ptx:100) ret;
GPGPU-Sim PTX:  2 (potential) branch divergence @  PC=0x090 (bfs.1.sm_30.ptx:50) @%p2 bra BB0_7;
GPGPU-Sim PTX:    immediate post dominator      @  PC=0x1d8 (bfs.1.sm_30.ptx:100) ret;
GPGPU-Sim PTX:  3 (potential) branch divergence @  PC=0x0d8 (bfs.1.sm_30.ptx:60) @%p3 bra BB0_7;
GPGPU-Sim PTX:    immediate post dominator      @  PC=0x1d8 (bfs.1.sm_30.ptx:100) ret;
GPGPU-Sim PTX:  4 (potential) branch divergence @  PC=0x158 (bfs.1.sm_30.ptx:79) @%p4 bra BB0_6;
GPGPU-Sim PTX:    immediate post dominator      @  PC=0x1b0 (bfs.1.sm_30.ptx:93) add.s64 %rd31, %rd31, 4;
GPGPU-Sim PTX:  5 (potential) branch divergence @  PC=0x1d0 (bfs.1.sm_30.ptx:97) @%p5 bra BB0_4;
GPGPU-Sim PTX:    immediate post dominator      @  PC=0x1d8 (bfs.1.sm_30.ptx:100) ret;
GPGPU-Sim PTX: ... end of reconvergence points for _Z6KernelP4NodePiPbS2_S2_S1_i
GPGPU-Sim PTX: ... done pre-decoding instructions for '_Z6KernelP4NodePiPbS2_S2_S1_i'.
GPGPU-Sim PTX: pushing kernel '_Z6KernelP4NodePiPbS2_S2_S1_i' to stream 0, gridDim= (128,1,1) blockDim = (512,1,1) 
GPGPU-Sim uArch: Shader 0 bind to kernel 1 '_Z6KernelP4NodePiPbS2_S2_S1_i'
GPGPU-Sim uArch: CTA/core = 2, limited by: regs
GPGPU-Sim uArch: Shader 1 bind to kernel 1 '_Z6KernelP4NodePiPbS2_S2_S1_i'
GPGPU-Sim uArch: Shader 2 bind to kernel 1 '_Z6KernelP4NodePiPbS2_S2_S1_i'
GPGPU-Sim uArch: Shader 3 bind to kernel 1 '_Z6KernelP4NodePiPbS2_S2_S1_i'
GPGPU-Sim uArch: Shader 4 bind to kernel 1 '_Z6KernelP4NodePiPbS2_S2_S1_i'
GPGPU-Sim uArch: Shader 5 bind to kernel 1 '_Z6KernelP4NodePiPbS2_S2_S1_i'
GPGPU-Sim uArch: Shader 6 bind to kernel 1 '_Z6KernelP4NodePiPbS2_S2_S1_i'
GPGPU-Sim uArch: Shader 7 bind to kernel 1 '_Z6KernelP4NodePiPbS2_S2_S1_i'
GPGPU-Sim uArch: Shader 8 bind to kernel 1 '_Z6KernelP4NodePiPbS2_S2_S1_i'
GPGPU-Sim uArch: Shader 9 bind to kernel 1 '_Z6KernelP4NodePiPbS2_S2_S1_i'
GPGPU-Sim uArch: Shader 10 bind to kernel 1 '_Z6KernelP4NodePiPbS2_S2_S1_i'
GPGPU-Sim uArch: Shader 11 bind to kernel 1 '_Z6KernelP4NodePiPbS2_S2_S1_i'
GPGPU-Sim uArch: Shader 12 bind to kernel 1 '_Z6KernelP4NodePiPbS2_S2_S1_i'
GPGPU-Sim uArch: Shader 13 bind to kernel 1 '_Z6KernelP4NodePiPbS2_S2_S1_i'
GPGPU-Sim uArch: Shader 14 bind to kernel 1 '_Z6KernelP4NodePiPbS2_S2_S1_i'
Destroy streams for kernel 1: size 0
kernel_name = _Z6KernelP4NodePiPbS2_S2_S1_i 
kernel_launch_uid = 1 
gpu_sim_cycle = 5381
gpu_sim_insn = 1245360
gpu_ipc =     231.4365
gpu_tot_sim_cycle = 5381
gpu_tot_sim_insn = 1245360
gpu_tot_ipc =     231.4365
gpu_tot_issued_cta = 128
gpu_occupancy = 55.7505% 
gpu_tot_occupancy = 55.7505% 
max_total_param_size = 0
gpu_stall_dramfull = 0
gpu_stall_icnt2sh    = 0
partiton_level_parallism =       0.1117
partiton_level_parallism_total  =       0.1117
partiton_level_parallism_util =       1.2653
partiton_level_parallism_util_total  =       1.2653
L2_BW  =       9.6702 GB/Sec
L2_BW_total  =       9.6702 GB/Sec
gpu_total_sim_rate=622680

========= Core cache stats =========
L1I_cache:
	L1I_total_cache_accesses = 22624
	L1I_total_cache_misses = 1440
	L1I_total_cache_miss_rate = 0.0636
	L1I_total_cache_pending_hits = 0
	L1I_total_cache_reservation_fails = 0
L1D_cache:
	L1D_cache_core[0]: Access = 155, Miss = 51, Miss_rate = 0.329, Pending_hits = 72, Reservation_fails = 0
	L1D_cache_core[1]: Access = 144, Miss = 36, Miss_rate = 0.250, Pending_hits = 108, Reservation_fails = 0
	L1D_cache_core[2]: Access = 144, Miss = 36, Miss_rate = 0.250, Pending_hits = 108, Reservation_fails = 0
	L1D_cache_core[3]: Access = 144, Miss = 36, Miss_rate = 0.250, Pending_hits = 108, Reservation_fails = 0
	L1D_cache_core[4]: Access = 144, Miss = 36, Miss_rate = 0.250, Pending_hits = 108, Reservation_fails = 0
	L1D_cache_core[5]: Access = 144, Miss = 36, Miss_rate = 0.250, Pending_hits = 108, Reservation_fails = 0
	L1D_cache_core[6]: Access = 144, Miss = 36, Miss_rate = 0.250, Pending_hits = 108, Reservation_fails = 0
	L1D_cache_core[7]: Access = 144, Miss = 36, Miss_rate = 0.250, Pending_hits = 108, Reservation_fails = 0
	L1D_cache_core[8]: Access = 144, Miss = 36, Miss_rate = 0.250, Pending_hits = 108, Reservation_fails = 0
	L1D_cache_core[9]: Access = 144, Miss = 36, Miss_rate = 0.250, Pending_hits = 108, Reservation_fails = 0
	L1D_cache_core[10]: Access = 144, Miss = 36, Miss_rate = 0.250, Pending_hits = 108, Reservation_fails = 0
	L1D_cache_core[11]: Access = 128, Miss = 32, Miss_rate = 0.250, Pending_hits = 96, Reservation_fails = 0
	L1D_cache_core[12]: Access = 128, Miss = 32, Miss_rate = 0.250, Pending_hits = 96, Reservation_fails = 0
	L1D_cache_core[13]: Access = 128, Miss = 32, Miss_rate = 0.250, Pending_hits = 96, Reservation_fails = 0
	L1D_cache_core[14]: Access = 128, Miss = 32, Miss_rate = 0.250, Pending_hits = 96, Reservation_fails = 0
	L1D_total_cache_accesses = 2107
	L1D_total_cache_misses = 539
	L1D_total_cache_miss_rate = 0.2558
	L1D_total_cache_pending_hits = 1536
	L1D_total_cache_reservation_fails = 0
	L1D_cache_data_port_util = 0.001
	L1D_cache_fill_port_util = 0.011
L1C_cache:
	L1C_total_cache_accesses = 14336
	L1C_total_cache_misses = 480
	L1C_total_cache_miss_rate = 0.0335
	L1C_total_cache_pending_hits = 0
	L1C_total_cache_reservation_fails = 3389
L1T_cache:
	L1T_total_cache_accesses = 0
	L1T_total_cache_misses = 0
	L1T_total_cache_pending_hits = 0
	L1T_total_cache_reservation_fails = 0

Total_core_cache_stats:
	Total_core_cache_stats_breakdown[GLOBAL_ACC_R][HIT] = 31
	Total_core_cache_stats_breakdown[GLOBAL_ACC_R][HIT_RESERVED] = 1536
	Total_core_cache_stats_breakdown[GLOBAL_ACC_R][MISS] = 523
	Total_core_cache_stats_breakdown[GLOBAL_ACC_R][RESERVATION_FAIL] = 0
	Total_core_cache_stats_breakdown[GLOBAL_ACC_R][SECTOR_MISS] = 0
	Total_core_cache_stats_breakdown[LOCAL_ACC_R][HIT] = 0
	Total_core_cache_stats_breakdown[LOCAL_ACC_R][HIT_RESERVED] = 0
	Total_core_cache_stats_breakdown[LOCAL_ACC_R][MISS] = 0
	Total_core_cache_stats_breakdown[LOCAL_ACC_R][RESERVATION_FAIL] = 0
	Total_core_cache_stats_breakdown[LOCAL_ACC_R][SECTOR_MISS] = 0
	Total_core_cache_stats_breakdown[CONST_ACC_R][HIT] = 13856
	Total_core_cache_stats_breakdown[CONST_ACC_R][HIT_RESERVED] = 0
	Total_core_cache_stats_breakdown[CONST_ACC_R][MISS] = 480
	Total_core_cache_stats_breakdown[CONST_ACC_R][RESERVATION_FAIL] = 3389
	Total_core_cache_stats_breakdown[CONST_ACC_R][SECTOR_MISS] = 0
	Total_core_cache_stats_breakdown[TEXTURE_ACC_R][HIT] = 0
	Total_core_cache_stats_breakdown[TEXTURE_ACC_R][HIT_RESERVED] = 0
	Total_core_cache_stats_breakdown[TEXTURE_ACC_R][MISS] = 0
	Total_core_cache_stats_breakdown[TEXTURE_ACC_R][RESERVATION_FAIL] = 0
	Total_core_cache_stats_breakdown[TEXTURE_ACC_R][SECTOR_MISS] = 0
	Total_core_cache_stats_breakdown[GLOBAL_ACC_W][HIT] = 1
	Total_core_cache_stats_breakdown[GLOBAL_ACC_W][HIT_RESERVED] = 0
	Total_core_cache_stats_breakdown[GLOBAL_ACC_W][MISS] = 16
	Total_core_cache_stats_breakdown[GLOBAL_ACC_W][RESERVATION_FAIL] = 0
	Total_core_cache_stats_breakdown[GLOBAL_ACC_W][SECTOR_MISS] = 0
	Total_core_cache_stats_breakdown[LOCAL_ACC_W][HIT] = 0
	Total_core_cache_stats_breakdown[LOCAL_ACC_W][HIT_RESERVED] = 0
	Total_core_cache_stats_breakdown[LOCAL_ACC_W][MISS] = 0
	Total_core_cache_stats_breakdown[LOCAL_ACC_W][RESERVATION_FAIL] = 0
	Total_core_cache_stats_breakdown[LOCAL_ACC_W][SECTOR_MISS] = 0
	Total_core_cache_stats_breakdown[L1_WRBK_ACC][HIT] = 0
	Total_core_cache_stats_breakdown[L1_WRBK_ACC][HIT_RESERVED] = 0
	Total_core_cache_stats_breakdown[L1_WRBK_ACC][MISS] = 0
	Total_core_cache_stats_breakdown[L1_WRBK_ACC][RESERVATION_FAIL] = 0
	Total_core_cache_stats_breakdown[L1_WRBK_ACC][SECTOR_MISS] = 0
	Total_core_cache_stats_breakdown[L2_WRBK_ACC][HIT] = 0
	Total_core_cache_stats_breakdown[L2_WRBK_ACC][HIT_RESERVED] = 0
	Total_core_cache_stats_breakdown[L2_WRBK_ACC][MISS] = 0
	Total_core_cache_stats_breakdown[L2_WRBK_ACC][RESERVATION_FAIL] = 0
	Total_core_cache_stats_breakdown[L2_WRBK_ACC][SECTOR_MISS] = 0
	Total_core_cache_stats_breakdown[INST_ACC_R][HIT] = 21184
	Total_core_cache_stats_breakdown[INST_ACC_R][HIT_RESERVED] = 0
	Total_core_cache_stats_breakdown[INST_ACC_R][MISS] = 1440
	Total_core_cache_stats_breakdown[INST_ACC_R][RESERVATION_FAIL] = 0
	Total_core_cache_stats_breakdown[INST_ACC_R][SECTOR_MISS] = 0
	Total_core_cache_stats_breakdown[L1_WR_ALLOC_R][HIT] = 0
	Total_core_cache_stats_breakdown[L1_WR_ALLOC_R][HIT_RESERVED] = 0
	Total_core_cache_stats_breakdown[L1_WR_ALLOC_R][MISS] = 0
	Total_core_cache_stats_breakdown[L1_WR_ALLOC_R][RESERVATION_FAIL] = 0
	Total_core_cache_stats_breakdown[L1_WR_ALLOC_R][SECTOR_MISS] = 0
	Total_core_cache_stats_breakdown[L2_WR_ALLOC_R][HIT] = 0
	Total_core_cache_stats_breakdown[L2_WR_ALLOC_R][HIT_RESERVED] = 0
	Total_core_cache_stats_breakdown[L2_WR_ALLOC_R][MISS] = 0
	Total_core_cache_stats_breakdown[L2_WR_ALLOC_R][RESERVATION_FAIL] = 0
	Total_core_cache_stats_breakdown[L2_WR_ALLOC_R][SECTOR_MISS] = 0
	Total_core_cache_stats_breakdown[GLOBAL_ACC_R][TOTAL_ACCESS] = 2090
	Total_core_cache_stats_breakdown[CONST_ACC_R][TOTAL_ACCESS] = 14336
	Total_core_cache_stats_breakdown[GLOBAL_ACC_W][TOTAL_ACCESS] = 17
	Total_core_cache_stats_breakdown[INST_ACC_R][TOTAL_ACCESS] = 22624

Total_core_cache_fail_stats:
	Total_core_cache_fail_stats_breakdown[CONST_ACC_R][MSHR_MERGE_ENRTY_FAIL] = 3389
ctas_completed 128, Shader 0 warp_id issue ditsribution:
warp_id:
0, 1, 2, 3, 4, 5, 6, 7, 8, 9, 10, 11, 12, 13, 14, 15, 16, 17, 18, 19, 20, 21, 22, 23, 24, 25, 26, 27, 28, 29, 30, 31, 
distro:
207, 20, 20, 20, 20, 20, 20, 20, 20, 20, 20, 20, 20, 20, 20, 20, 100, 100, 100, 100, 100, 100, 100, 100, 100, 100, 100, 100, 100, 100, 100, 100, 
gpgpu_n_tot_thrd_icount = 1316704
gpgpu_n_tot_w_icount = 41147
gpgpu_n_stall_shd_mem = 3389
gpgpu_n_mem_read_local = 0
gpgpu_n_mem_write_local = 0
gpgpu_n_mem_read_global = 523
gpgpu_n_mem_write_global = 17
gpgpu_n_mem_texture = 0
gpgpu_n_mem_const = 15
gpgpu_n_load_insn  = 65578
gpgpu_n_store_insn = 17
gpgpu_n_shmem_insn = 0
gpgpu_n_sstarr_insn = 0
gpgpu_n_tex_insn = 0
gpgpu_n_const_mem_insn = 0
gpgpu_n_param_mem_insn = 458752
gpgpu_n_shmem_bkconflict = 0
gpgpu_n_cache_bkconflict = 0
gpgpu_n_intrawarp_mshr_merge = 0
gpgpu_n_cmem_portconflict = 3389
gpgpu_stall_shd_mem[c_mem][resource_stall] = 3389
gpgpu_stall_shd_mem[s_mem][bk_conf] = 0
gpgpu_stall_shd_mem[gl_mem][resource_stall] = 0
gpgpu_stall_shd_mem[gl_mem][coal_stall] = 0
gpgpu_stall_shd_mem[gl_mem][data_port_stall] = 0
gpu_reg_bank_conflict_stalls = 0
Warp Occupancy Distribution:
Stall:13130	W0_Idle:20489	W0_Scoreboard:18764	W1:187	W2:0	W3:0	W4:0	W5:0	W6:0	W7:0	W8:0	W9:0	W10:0	W11:0	W12:0	W13:0	W14:0	W15:0	W16:0	W17:0	W18:0	W19:0	W20:0	W21:0	W22:0	W23:0	W24:0	W25:0	W26:0	W27:0	W28:0	W29:0	W30:0	W31:0	W32:40960
single_issue_nums: WS0:20667	WS1:20480	
dual_issue_nums: WS0:0	WS1:0	
traffic_breakdown_coretomem[CONST_ACC_R] = 120 {8:15,}
traffic_breakdown_coretomem[GLOBAL_ACC_R] = 4184 {8:523,}
traffic_breakdown_coretomem[GLOBAL_ACC_W] = 680 {40:17,}
traffic_breakdown_coretomem[INST_ACC_R] = 368 {8:46,}
traffic_breakdown_memtocore[CONST_ACC_R] = 1200 {40:30,}
traffic_breakdown_memtocore[GLOBAL_ACC_R] = 83680 {40:2092,}
traffic_breakdown_memtocore[GLOBAL_ACC_W] = 136 {8:17,}
traffic_breakdown_memtocore[INST_ACC_R] = 7360 {40:184,}
maxmflatency = 268 
max_icnt2mem_latency = 44 
maxmrqlatency = 21 
max_icnt2sh_latency = 19 
averagemflatency = 133 
avg_icnt2mem_latency = 11 
avg_mrq_latency = 9 
avg_icnt2sh_latency = 7 
mrq_lat_table:9 	1 	0 	9 	7 	0 	0 	0 	0 	0 	0 	0 	0 	0 	0 	0 	0 	0 	0 	0 	0 	0 	0 	0 	0 	0 	0 	0 	0 	0 	0 	0 	
dq_lat_table:0 	0 	0 	0 	0 	0 	0 	0 	0 	0 	0 	0 	0 	0 	0 	0 	0 	0 	0 	0 	0 	0 	0 	0 	0 	0 	0 	0 	0 	0 	0 	0 	
mf_lat_table:0 	0 	0 	0 	0 	0 	0 	2128 	11 	0 	0 	0 	0 	0 	0 	0 	0 	0 	0 	0 	0 	0 	0 	0 	0 	0 	0 	0 	0 	0 	0 	0 	
icnt2mem_lat_table:0 	0 	26 	29 	6 	540 	0 	0 	0 	0 	0 	0 	0 	0 	0 	0 	0 	0 	0 	0 	0 	0 	0 	0 	
icnt2sh_lat_table:0 	0 	1934 	175 	30 	0 	0 	0 	0 	0 	0 	0 	0 	0 	0 	0 	0 	0 	0 	0 	0 	0 	0 	0 	
mf_lat_pw_table:0 	0 	0 	0 	0 	0 	0 	9 	0 	0 	0 	0 	0 	0 	0 	0 	0 	0 	0 	0 	0 	0 	0 	0 	0 	0 	0 	0 	0 	0 	0 	0 	
maximum concurrent accesses to same row:
dram[0]:         4         0         0         0         0         0         0         0         0         0         0         0         0         0         0         0 
dram[1]:         0         0         0         0         0         0         0         0         0         0         0         0         0         0         0         0 
dram[2]:         0         0         0         0         0         0         0         0         0         0         0         0         0         0         0         0 
dram[3]:         0         0         0         0         0         0         0         0         0         0         0         0         0         0         0         0 
dram[4]:         0         0         0         0         0         0         0         0         0         0         0         0         0         0         0         0 
dram[5]:         0         0         0         0         0         0         0         0         0         0         0         0         0         0         0         0 
maximum service time to same row:
dram[0]:       567         0         0         0         0         0         0         0         0         0         0         0         0         0         0         0 
dram[1]:      1297         0         0         0         0         0         0         0         0         0         0         0         0         0         0         0 
dram[2]:         0         0         0         0         0      2051         0         0         0         0         0         0         0         0         0         0 
dram[3]:         0         0         0         0         0         0         0         0         0         0         0         0         0         0         0         0 
dram[4]:         0         0         0         0         0         0         0         0         0         0         0         0         0         0         0         0 
dram[5]:         0         0         0         0         0         0         0         0         0         0         0         0         0         0         0         0 
average row accesses per activate:
dram[0]:  3.500000      -nan      -nan      -nan      -nan      -nan      -nan      -nan      -nan      -nan      -nan      -nan      -nan      -nan      -nan      -nan 
dram[1]:  8.000000      -nan      -nan      -nan      -nan      -nan      -nan      -nan      -nan      -nan      -nan      -nan      -nan      -nan      -nan      -nan 
dram[2]:      -nan      -nan      -nan      -nan      -nan  4.000000      -nan      -nan      -nan      -nan      -nan      -nan      -nan      -nan      -nan      -nan 
dram[3]:      -nan      -nan      -nan      -nan      -nan      -nan      -nan      -nan      -nan      -nan      -nan      -nan      -nan      -nan      -nan      -nan 
dram[4]:      -nan      -nan      -nan      -nan      -nan      -nan      -nan      -nan      -nan      -nan      -nan      -nan      -nan      -nan      -nan      -nan 
dram[5]:      -nan      -nan      -nan      -nan      -nan      -nan      -nan      -nan      -nan      -nan      -nan      -nan      -nan      -nan      -nan      -nan 
average row locality = 26/6 = 4.333333
number of total memory accesses made:
dram[0]:         0         0         0         0         0         0         0         0         0         0         0         0         0         0         0         0 
dram[1]:         0         0         0         0         0         0         0         0         0         0         0         0         0         0         0         0 
dram[2]:         0         0         0         0         0         0         0         0         0         0         0         0         0         0         0         0 
dram[3]:         0         0         0         0         0         0         0         0         0         0         0         0         0         0         0         0 
dram[4]:         0         0         0         0         0         0         0         0         0         0         0         0         0         0         0         0 
dram[5]:         0         0         0         0         0         0         0         0         0         0         0         0         0         0         0         0 
total accesses: 0
min_bank_accesses = 0!
min_chip_accesses = 0!
number of total read accesses:
dram[0]:         0         0         0         0         0         0         0         0         0         0         0         0         0         0         0         0 
dram[1]:         0         0         0         0         0         0         0         0         0         0         0         0         0         0         0         0 
dram[2]:         0         0         0         0         0         0         0         0         0         0         0         0         0         0         0         0 
dram[3]:         0         0         0         0         0         0         0         0         0         0         0         0         0         0         0         0 
dram[4]:         0         0         0         0         0         0         0         0         0         0         0         0         0         0         0         0 
dram[5]:         0         0         0         0         0         0         0         0         0         0         0         0         0         0         0         0 
total dram reads = 0
min_bank_accesses = 0!
min_chip_accesses = 0!
number of total write accesses:
dram[0]:         0         0         0         0         0         0         0         0         0         0         0         0         0         0         0         0 
dram[1]:         0         0         0         0         0         0         0         0         0         0         0         0         0         0         0         0 
dram[2]:         0         0         0         0         0         0         0         0         0         0         0         0         0         0         0         0 
dram[3]:         0         0         0         0         0         0         0         0         0         0         0         0         0         0         0         0 
dram[4]:         0         0         0         0         0         0         0         0         0         0         0         0         0         0         0         0 
dram[5]:         0         0         0         0         0         0         0         0         0         0         0         0         0         0         0         0 
total dram writes = 0
min_bank_accesses = 0!
min_chip_accesses = 0!
average mf latency per bank:
dram[0]:     none      none      none      none      none      none      none      none      none      none      none      none      none      none      none      none  
dram[1]:     none      none      none      none      none      none      none      none      none      none      none      none      none      none      none      none  
dram[2]:     none      none      none      none      none      none      none      none      none      none      none      none      none      none      none      none  
dram[3]:     none      none      none      none      none      none      none      none      none      none      none      none      none      none      none      none  
dram[4]:     none      none      none      none      none      none      none      none      none      none      none      none      none      none      none      none  
dram[5]:     none      none      none      none      none      none      none      none      none      none      none      none      none      none      none      none  
maximum mf latency per bank:
dram[0]:        268         0         0       172       145       147       135       172         0         0         0         0       134         0         0       172
dram[1]:          0         0         0         0       145       151       135       137         0         0       132         0         0         0         0         0
dram[2]:          0       172         0         0       146       259       134       137         0       172         0       172         0       132         0         0
dram[3]:          0         0         0         0       145       147       132       132         0       172       132       132       132         0         0         0
dram[4]:          0         0         0         0       150       145       172       135         0         0         0         0         0         0       172         0
dram[5]:        172         0       172         0       152       146       136       132       172       172         0       172         0         0         0         0
Memory Partition 0: 
Cache L2_bank_000:
MSHR contents

Cache L2_bank_001:
MSHR contents

In Dram Latency Queue (total = 0): 
DRAM[0]: 16 bks, busW=4 BL=8 CL=12, tRRD=6 tCCD=2, tRCD=12 tRAS=28 tRP=12 tRC=40
n_cmd=7102 n_nop=7081 n_act=4 n_pre=3 n_ref_event=94732067769936 n_req=14 n_rd=14 n_rd_L2_A=0 n_write=0 n_wr_bk=0 bw_util=0.003943
n_activity=196 dram_eff=0.1429
bk0: 14a 6998i bk1: 0a 7099i bk2: 0a 7099i bk3: 0a 7100i bk4: 0a 7100i bk5: 0a 7102i bk6: 0a 7102i bk7: 0a 7102i bk8: 0a 7102i bk9: 0a 7102i bk10: 0a 7102i bk11: 0a 7102i bk12: 0a 7102i bk13: 0a 7104i bk14: 0a 7104i bk15: 0a 7105i 

------------------------------------------------------------------------

Row_Buffer_Locality = 0.714286
Row_Buffer_Locality_read = 0.714286
Row_Buffer_Locality_write = -nan
Bank_Level_Parallism = 1.000000
Bank_Level_Parallism_Col = 0.674105
Bank_Level_Parallism_Ready = 1.000000
write_to_read_ratio_blp_rw_average = 0.000000
GrpLevelPara = 0.000000 

BW Util details:
bwutil = 0.003943 
total_CMD = 7102 
util_bw = 28 
Wasted_Col = 58 
Wasted_Row = 36 
Idle = 6980 

BW Util Bottlenecks: 
RCDc_limit = 48 
RCDWRc_limit = 0 
WTRc_limit = 0 
RTWc_limit = 0 
CCDLc_limit = 10 
rwq = 0 
CCDLc_limit_alone = 10 
WTRc_limit_alone = 0 
RTWc_limit_alone = 0 

Commands details: 
total_CMD = 7102 
n_nop = 7081 
Read = 14 
Write = 0 
L2_Alloc = 0 
L2_WB = 0 
n_act = 4 
n_pre = 3 
n_ref = 94732067769936 
n_req = 14 
total_req = 14 

Dual Bus Interface Util: 
issued_total_row = 7 
issued_total_col = 14 
Row_Bus_Util =  0.000986 
CoL_Bus_Util = 0.001971 
Either_Row_CoL_Bus_Util = 0.002957 
Issued_on_Two_Bus_Simul_Util = 0.000000 
issued_two_Eff = 0.000000 
queue_avg = 0.030414 


dram_util_bins: 0 0 0 0 0 0 0 0 0 0
dram_eff_bins: 0 0 0 0 0 0 0 0 0 0
mrqq: max=3 avg=0.030414
Memory Partition 1: 
Cache L2_bank_002:
MSHR contents

Cache L2_bank_003:
MSHR contents

In Dram Latency Queue (total = 0): 
DRAM[1]: 16 bks, busW=4 BL=8 CL=12, tRRD=6 tCCD=2, tRCD=12 tRAS=28 tRP=12 tRC=40
n_cmd=7102 n_nop=7093 n_act=1 n_pre=0 n_ref_event=4560869750798743682 n_req=8 n_rd=8 n_rd_L2_A=0 n_write=0 n_wr_bk=0 bw_util=0.002253
n_activity=61 dram_eff=0.2623
bk0: 8a 7079i bk1: 0a 7102i bk2: 0a 7102i bk3: 0a 7102i bk4: 0a 7102i bk5: 0a 7102i bk6: 0a 7102i bk7: 0a 7102i bk8: 0a 7102i bk9: 0a 7102i bk10: 0a 7102i bk11: 0a 7102i bk12: 0a 7102i bk13: 0a 7102i bk14: 0a 7102i bk15: 0a 7102i 

------------------------------------------------------------------------

Row_Buffer_Locality = 0.875000
Row_Buffer_Locality_read = 0.875000
Row_Buffer_Locality_write = -nan
Bank_Level_Parallism = 1.000000
Bank_Level_Parallism_Col = 1.000000
Bank_Level_Parallism_Ready = 1.000000
write_to_read_ratio_blp_rw_average = 0.000000
GrpLevelPara = 1.000000 

BW Util details:
bwutil = 0.002253 
total_CMD = 7102 
util_bw = 16 
Wasted_Col = 18 
Wasted_Row = 0 
Idle = 7068 

BW Util Bottlenecks: 
RCDc_limit = 12 
RCDWRc_limit = 0 
WTRc_limit = 0 
RTWc_limit = 0 
CCDLc_limit = 6 
rwq = 0 
CCDLc_limit_alone = 6 
WTRc_limit_alone = 0 
RTWc_limit_alone = 0 

Commands details: 
total_CMD = 7102 
n_nop = 7093 
Read = 8 
Write = 0 
L2_Alloc = 0 
L2_WB = 0 
n_act = 1 
n_pre = 0 
n_ref = 4560869750798743682 
n_req = 8 
total_req = 8 

Dual Bus Interface Util: 
issued_total_row = 1 
issued_total_col = 8 
Row_Bus_Util =  0.000141 
CoL_Bus_Util = 0.001126 
Either_Row_CoL_Bus_Util = 0.001267 
Issued_on_Two_Bus_Simul_Util = 0.000000 
issued_two_Eff = 0.000000 
queue_avg = 0.006055 


dram_util_bins: 0 0 0 0 0 0 0 0 0 0
dram_eff_bins: 0 0 0 0 0 0 0 0 0 0
mrqq: max=3 avg=0.00605463
Memory Partition 2: 
Cache L2_bank_004:
MSHR contents

Cache L2_bank_005:
MSHR contents

In Dram Latency Queue (total = 0): 
DRAM[2]: 16 bks, busW=4 BL=8 CL=12, tRRD=6 tCCD=2, tRCD=12 tRAS=28 tRP=12 tRC=40
n_cmd=7102 n_nop=7097 n_act=1 n_pre=0 n_ref_event=0 n_req=4 n_rd=4 n_rd_L2_A=0 n_write=0 n_wr_bk=0 bw_util=0.001126
n_activity=40 dram_eff=0.2
bk0: 0a 7102i bk1: 0a 7103i bk2: 0a 7103i bk3: 0a 7103i bk4: 0a 7103i bk5: 4a 7084i bk6: 0a 7101i bk7: 0a 7101i bk8: 0a 7101i bk9: 0a 7101i bk10: 0a 7101i bk11: 0a 7102i bk12: 0a 7102i bk13: 0a 7102i bk14: 0a 7102i bk15: 0a 7102i 

------------------------------------------------------------------------

Row_Buffer_Locality = 0.750000
Row_Buffer_Locality_read = 0.750000
Row_Buffer_Locality_write = -nan
Bank_Level_Parallism = 1.000000
Bank_Level_Parallism_Col = 1.000000
Bank_Level_Parallism_Ready = 1.000000
write_to_read_ratio_blp_rw_average = 0.000000
GrpLevelPara = 1.000000 

BW Util details:
bwutil = 0.001126 
total_CMD = 7102 
util_bw = 8 
Wasted_Col = 15 
Wasted_Row = 0 
Idle = 7079 

BW Util Bottlenecks: 
RCDc_limit = 12 
RCDWRc_limit = 0 
WTRc_limit = 0 
RTWc_limit = 0 
CCDLc_limit = 3 
rwq = 0 
CCDLc_limit_alone = 3 
WTRc_limit_alone = 0 
RTWc_limit_alone = 0 

Commands details: 
total_CMD = 7102 
n_nop = 7097 
Read = 4 
Write = 0 
L2_Alloc = 0 
L2_WB = 0 
n_act = 1 
n_pre = 0 
n_ref = 0 
n_req = 4 
total_req = 4 

Dual Bus Interface Util: 
issued_total_row = 1 
issued_total_col = 4 
Row_Bus_Util =  0.000141 
CoL_Bus_Util = 0.000563 
Either_Row_CoL_Bus_Util = 0.000704 
Issued_on_Two_Bus_Simul_Util = 0.000000 
issued_two_Eff = 0.000000 
queue_avg = 0.005491 


dram_util_bins: 0 0 0 0 0 0 0 0 0 0
dram_eff_bins: 0 0 0 0 0 0 0 0 0 0
mrqq: max=3 avg=0.00549141
Memory Partition 3: 
Cache L2_bank_006:
MSHR contents

Cache L2_bank_007:
MSHR contents

In Dram Latency Queue (total = 0): 
DRAM[3]: 16 bks, busW=4 BL=8 CL=12, tRRD=6 tCCD=2, tRCD=12 tRAS=28 tRP=12 tRC=40
n_cmd=7102 n_nop=7102 n_act=0 n_pre=0 n_ref_event=13984 n_req=0 n_rd=0 n_rd_L2_A=0 n_write=0 n_wr_bk=0 bw_util=0
n_activity=0 dram_eff=-nan
bk0: 0a 7102i bk1: 0a 7102i bk2: 0a 7102i bk3: 0a 7102i bk4: 0a 7102i bk5: 0a 7102i bk6: 0a 7102i bk7: 0a 7102i bk8: 0a 7102i bk9: 0a 7102i bk10: 0a 7102i bk11: 0a 7102i bk12: 0a 7102i bk13: 0a 7102i bk14: 0a 7102i bk15: 0a 7102i 

------------------------------------------------------------------------

Row_Buffer_Locality = -nan
Row_Buffer_Locality_read = -nan
Row_Buffer_Locality_write = -nan
Bank_Level_Parallism = -nan
Bank_Level_Parallism_Col = -nan
Bank_Level_Parallism_Ready = -nan
write_to_read_ratio_blp_rw_average = -nan
GrpLevelPara = -nan 

BW Util details:
bwutil = 0.000000 
total_CMD = 7102 
util_bw = 0 
Wasted_Col = 0 
Wasted_Row = 0 
Idle = 7102 

BW Util Bottlenecks: 
RCDc_limit = 0 
RCDWRc_limit = 0 
WTRc_limit = 0 
RTWc_limit = 0 
CCDLc_limit = 0 
rwq = 0 
CCDLc_limit_alone = 0 
WTRc_limit_alone = 0 
RTWc_limit_alone = 0 

Commands details: 
total_CMD = 7102 
n_nop = 7102 
Read = 0 
Write = 0 
L2_Alloc = 0 
L2_WB = 0 
n_act = 0 
n_pre = 0 
n_ref = 13984 
n_req = 0 
total_req = 0 

Dual Bus Interface Util: 
issued_total_row = 0 
issued_total_col = 0 
Row_Bus_Util =  0.000000 
CoL_Bus_Util = 0.000000 
Either_Row_CoL_Bus_Util = 0.000000 
Issued_on_Two_Bus_Simul_Util = 0.000000 
issued_two_Eff = -nan 
queue_avg = 0.000000 


dram_util_bins: 0 0 0 0 0 0 0 0 0 0
dram_eff_bins: 0 0 0 0 0 0 0 0 0 0
mrqq: max=0 avg=0
Memory Partition 4: 
Cache L2_bank_008:
MSHR contents

Cache L2_bank_009:
MSHR contents

In Dram Latency Queue (total = 0): 
DRAM[4]: 16 bks, busW=4 BL=8 CL=12, tRRD=6 tCCD=2, tRCD=12 tRAS=28 tRP=12 tRC=40
n_cmd=7102 n_nop=7102 n_act=0 n_pre=0 n_ref_event=0 n_req=0 n_rd=0 n_rd_L2_A=0 n_write=0 n_wr_bk=0 bw_util=0
n_activity=0 dram_eff=-nan
bk0: 0a 7102i bk1: 0a 7102i bk2: 0a 7102i bk3: 0a 7102i bk4: 0a 7102i bk5: 0a 7102i bk6: 0a 7102i bk7: 0a 7102i bk8: 0a 7102i bk9: 0a 7102i bk10: 0a 7102i bk11: 0a 7102i bk12: 0a 7102i bk13: 0a 7102i bk14: 0a 7102i bk15: 0a 7102i 

------------------------------------------------------------------------

Row_Buffer_Locality = -nan
Row_Buffer_Locality_read = -nan
Row_Buffer_Locality_write = -nan
Bank_Level_Parallism = -nan
Bank_Level_Parallism_Col = -nan
Bank_Level_Parallism_Ready = -nan
write_to_read_ratio_blp_rw_average = -nan
GrpLevelPara = -nan 

BW Util details:
bwutil = 0.000000 
total_CMD = 7102 
util_bw = 0 
Wasted_Col = 0 
Wasted_Row = 0 
Idle = 7102 

BW Util Bottlenecks: 
RCDc_limit = 0 
RCDWRc_limit = 0 
WTRc_limit = 0 
RTWc_limit = 0 
CCDLc_limit = 0 
rwq = 0 
CCDLc_limit_alone = 0 
WTRc_limit_alone = 0 
RTWc_limit_alone = 0 

Commands details: 
total_CMD = 7102 
n_nop = 7102 
Read = 0 
Write = 0 
L2_Alloc = 0 
L2_WB = 0 
n_act = 0 
n_pre = 0 
n_ref = 0 
n_req = 0 
total_req = 0 

Dual Bus Interface Util: 
issued_total_row = 0 
issued_total_col = 0 
Row_Bus_Util =  0.000000 
CoL_Bus_Util = 0.000000 
Either_Row_CoL_Bus_Util = 0.000000 
Issued_on_Two_Bus_Simul_Util = 0.000000 
issued_two_Eff = -nan 
queue_avg = 0.000000 


dram_util_bins: 0 0 0 0 0 0 0 0 0 0
dram_eff_bins: 0 0 0 0 0 0 0 0 0 0
mrqq: max=0 avg=0
Memory Partition 5: 
Cache L2_bank_010:
MSHR contents

Cache L2_bank_011:
MSHR contents

In Dram Latency Queue (total = 0): 
DRAM[5]: 16 bks, busW=4 BL=8 CL=12, tRRD=6 tCCD=2, tRCD=12 tRAS=28 tRP=12 tRC=40
n_cmd=7102 n_nop=7102 n_act=0 n_pre=0 n_ref_event=94732070361104 n_req=0 n_rd=0 n_rd_L2_A=0 n_write=0 n_wr_bk=0 bw_util=0
n_activity=0 dram_eff=-nan
bk0: 0a 7102i bk1: 0a 7102i bk2: 0a 7102i bk3: 0a 7102i bk4: 0a 7102i bk5: 0a 7102i bk6: 0a 7102i bk7: 0a 7102i bk8: 0a 7102i bk9: 0a 7102i bk10: 0a 7102i bk11: 0a 7102i bk12: 0a 7102i bk13: 0a 7102i bk14: 0a 7102i bk15: 0a 7102i 

------------------------------------------------------------------------

Row_Buffer_Locality = -nan
Row_Buffer_Locality_read = -nan
Row_Buffer_Locality_write = -nan
Bank_Level_Parallism = -nan
Bank_Level_Parallism_Col = -nan
Bank_Level_Parallism_Ready = -nan
write_to_read_ratio_blp_rw_average = -nan
GrpLevelPara = -nan 

BW Util details:
bwutil = 0.000000 
total_CMD = 7102 
util_bw = 0 
Wasted_Col = 0 
Wasted_Row = 0 
Idle = 7102 

BW Util Bottlenecks: 
RCDc_limit = 0 
RCDWRc_limit = 0 
WTRc_limit = 0 
RTWc_limit = 0 
CCDLc_limit = 0 
rwq = 0 
CCDLc_limit_alone = 0 
WTRc_limit_alone = 0 
RTWc_limit_alone = 0 

Commands details: 
total_CMD = 7102 
n_nop = 7102 
Read = 0 
Write = 0 
L2_Alloc = 0 
L2_WB = 0 
n_act = 0 
n_pre = 0 
n_ref = 94732070361104 
n_req = 0 
total_req = 0 

Dual Bus Interface Util: 
issued_total_row = 0 
issued_total_col = 0 
Row_Bus_Util =  0.000000 
CoL_Bus_Util = 0.000000 
Either_Row_CoL_Bus_Util = 0.000000 
Issued_on_Two_Bus_Simul_Util = 0.000000 
issued_two_Eff = -nan 
queue_avg = 0.000000 


dram_util_bins: 0 0 0 0 0 0 0 0 0 0
dram_eff_bins: 0 0 0 0 0 0 0 0 0 0
mrqq: max=0 avg=0

========= L2 cache stats =========
L2_cache_bank[0]: Access = 330, Miss = 14, Miss_rate = 0.042, Pending_hits = 30, Reservation_fails = 342
L2_cache_bank[1]: Access = 171, Miss = 0, Miss_rate = 0.000, Pending_hits = 0, Reservation_fails = 0
L2_cache_bank[2]: Access = 236, Miss = 8, Miss_rate = 0.034, Pending_hits = 12, Reservation_fails = 104
L2_cache_bank[3]: Access = 168, Miss = 0, Miss_rate = 0.000, Pending_hits = 0, Reservation_fails = 0
L2_cache_bank[4]: Access = 168, Miss = 0, Miss_rate = 0.000, Pending_hits = 0, Reservation_fails = 0
L2_cache_bank[5]: Access = 188, Miss = 4, Miss_rate = 0.021, Pending_hits = 0, Reservation_fails = 0
L2_cache_bank[6]: Access = 180, Miss = 0, Miss_rate = 0.000, Pending_hits = 0, Reservation_fails = 0
L2_cache_bank[7]: Access = 185, Miss = 0, Miss_rate = 0.000, Pending_hits = 0, Reservation_fails = 0
L2_cache_bank[8]: Access = 170, Miss = 0, Miss_rate = 0.000, Pending_hits = 0, Reservation_fails = 0
L2_cache_bank[9]: Access = 176, Miss = 0, Miss_rate = 0.000, Pending_hits = 0, Reservation_fails = 0
L2_cache_bank[10]: Access = 172, Miss = 0, Miss_rate = 0.000, Pending_hits = 0, Reservation_fails = 0
L2_cache_bank[11]: Access = 179, Miss = 0, Miss_rate = 0.000, Pending_hits = 0, Reservation_fails = 0
L2_total_cache_accesses = 2323
L2_total_cache_misses = 26
L2_total_cache_miss_rate = 0.0112
L2_total_cache_pending_hits = 42
L2_total_cache_reservation_fails = 446
L2_total_cache_breakdown:
	L2_cache_stats_breakdown[GLOBAL_ACC_R][HIT] = 2084
	L2_cache_stats_breakdown[GLOBAL_ACC_R][HIT_RESERVED] = 0
	L2_cache_stats_breakdown[GLOBAL_ACC_R][MISS] = 2
	L2_cache_stats_breakdown[GLOBAL_ACC_R][RESERVATION_FAIL] = 0
	L2_cache_stats_breakdown[GLOBAL_ACC_R][SECTOR_MISS] = 6
	L2_cache_stats_breakdown[LOCAL_ACC_R][HIT] = 0
	L2_cache_stats_breakdown[LOCAL_ACC_R][HIT_RESERVED] = 0
	L2_cache_stats_breakdown[LOCAL_ACC_R][MISS] = 0
	L2_cache_stats_breakdown[LOCAL_ACC_R][RESERVATION_FAIL] = 0
	L2_cache_stats_breakdown[LOCAL_ACC_R][SECTOR_MISS] = 0
	L2_cache_stats_breakdown[CONST_ACC_R][HIT] = 22
	L2_cache_stats_breakdown[CONST_ACC_R][HIT_RESERVED] = 6
	L2_cache_stats_breakdown[CONST_ACC_R][MISS] = 1
	L2_cache_stats_breakdown[CONST_ACC_R][RESERVATION_FAIL] = 115
	L2_cache_stats_breakdown[CONST_ACC_R][SECTOR_MISS] = 1
	L2_cache_stats_breakdown[TEXTURE_ACC_R][HIT] = 0
	L2_cache_stats_breakdown[TEXTURE_ACC_R][HIT_RESERVED] = 0
	L2_cache_stats_breakdown[TEXTURE_ACC_R][MISS] = 0
	L2_cache_stats_breakdown[TEXTURE_ACC_R][RESERVATION_FAIL] = 0
	L2_cache_stats_breakdown[TEXTURE_ACC_R][SECTOR_MISS] = 0
	L2_cache_stats_breakdown[GLOBAL_ACC_W][HIT] = 17
	L2_cache_stats_breakdown[GLOBAL_ACC_W][HIT_RESERVED] = 0
	L2_cache_stats_breakdown[GLOBAL_ACC_W][MISS] = 0
	L2_cache_stats_breakdown[GLOBAL_ACC_W][RESERVATION_FAIL] = 0
	L2_cache_stats_breakdown[GLOBAL_ACC_W][SECTOR_MISS] = 0
	L2_cache_stats_breakdown[LOCAL_ACC_W][HIT] = 0
	L2_cache_stats_breakdown[LOCAL_ACC_W][HIT_RESERVED] = 0
	L2_cache_stats_breakdown[LOCAL_ACC_W][MISS] = 0
	L2_cache_stats_breakdown[LOCAL_ACC_W][RESERVATION_FAIL] = 0
	L2_cache_stats_breakdown[LOCAL_ACC_W][SECTOR_MISS] = 0
	L2_cache_stats_breakdown[L1_WRBK_ACC][HIT] = 0
	L2_cache_stats_breakdown[L1_WRBK_ACC][HIT_RESERVED] = 0
	L2_cache_stats_breakdown[L1_WRBK_ACC][MISS] = 0
	L2_cache_stats_breakdown[L1_WRBK_ACC][RESERVATION_FAIL] = 0
	L2_cache_stats_breakdown[L1_WRBK_ACC][SECTOR_MISS] = 0
	L2_cache_stats_breakdown[L2_WRBK_ACC][HIT] = 0
	L2_cache_stats_breakdown[L2_WRBK_ACC][HIT_RESERVED] = 0
	L2_cache_stats_breakdown[L2_WRBK_ACC][MISS] = 0
	L2_cache_stats_breakdown[L2_WRBK_ACC][RESERVATION_FAIL] = 0
	L2_cache_stats_breakdown[L2_WRBK_ACC][SECTOR_MISS] = 0
	L2_cache_stats_breakdown[INST_ACC_R][HIT] = 132
	L2_cache_stats_breakdown[INST_ACC_R][HIT_RESERVED] = 36
	L2_cache_stats_breakdown[INST_ACC_R][MISS] = 4
	L2_cache_stats_breakdown[INST_ACC_R][RESERVATION_FAIL] = 331
	L2_cache_stats_breakdown[INST_ACC_R][SECTOR_MISS] = 12
	L2_cache_stats_breakdown[L1_WR_ALLOC_R][HIT] = 0
	L2_cache_stats_breakdown[L1_WR_ALLOC_R][HIT_RESERVED] = 0
	L2_cache_stats_breakdown[L1_WR_ALLOC_R][MISS] = 0
	L2_cache_stats_breakdown[L1_WR_ALLOC_R][RESERVATION_FAIL] = 0
	L2_cache_stats_breakdown[L1_WR_ALLOC_R][SECTOR_MISS] = 0
	L2_cache_stats_breakdown[L2_WR_ALLOC_R][HIT] = 0
	L2_cache_stats_breakdown[L2_WR_ALLOC_R][HIT_RESERVED] = 0
	L2_cache_stats_breakdown[L2_WR_ALLOC_R][MISS] = 0
	L2_cache_stats_breakdown[L2_WR_ALLOC_R][RESERVATION_FAIL] = 0
	L2_cache_stats_breakdown[L2_WR_ALLOC_R][SECTOR_MISS] = 0
	L2_cache_stats_breakdown[GLOBAL_ACC_R][TOTAL_ACCESS] = 2092
	L2_cache_stats_breakdown[CONST_ACC_R][TOTAL_ACCESS] = 30
	L2_cache_stats_breakdown[GLOBAL_ACC_W][TOTAL_ACCESS] = 17
	L2_cache_stats_breakdown[INST_ACC_R][TOTAL_ACCESS] = 184
L2_total_cache_reservation_fail_breakdown:
	L2_cache_stats_fail_breakdown[CONST_ACC_R][MSHR_MERGE_ENRTY_FAIL] = 115
	L2_cache_stats_fail_breakdown[INST_ACC_R][MSHR_MERGE_ENRTY_FAIL] = 331
L2_cache_data_port_util = 0.035
L2_cache_fill_port_util = 0.000

icnt_total_pkts_mem_to_simt=2323
icnt_total_pkts_simt_to_mem=601
LD_mem_lat_dist  0 0 0 0 0 0 0 0 0 0 0 0 0 0 0 0 0 0 0 0 0 0 0 0 0 0 0
ST_mem_lat_dist  0 0 0 0 0 0 0 0 0 0 0 0 0 0 0 0 0 0 0 0 0 0 0 0 0 0 0
----------------------------Interconnect-DETAILS--------------------------------
Class 0:
Packet latency average = 5.39501
	minimum = 5
	maximum = 19
Network latency average = 5.39501
	minimum = 5
	maximum = 19
Slowest packet = 14
Flit latency average = 5.39501
	minimum = 5
	maximum = 19
Slowest flit = 14
Fragmentation average = 0
	minimum = 0
	maximum = 0
Injected packet rate average = 0.0201257
	minimum = 0.00669021 (at node 11)
	maximum = 0.0613269 (at node 15)
Accepted packet rate average = 0.0201257
	minimum = 0.00780524 (at node 18)
	maximum = 0.0325218 (at node 0)
Injected flit rate average = 0.0201257
	minimum = 0.00669021 (at node 11)
	maximum = 0.0613269 (at node 15)
Accepted flit rate average= 0.0201257
	minimum = 0.00780524 (at node 18)
	maximum = 0.0325218 (at node 0)
Injected packet length average = 1
Accepted packet length average = 1
Total in-flight flits = 0 (0 measured)
====== Overall Traffic Statistics ======
====== Traffic class 0 ======
Packet latency average = 5.39501 (1 samples)
	minimum = 5 (1 samples)
	maximum = 19 (1 samples)
Network latency average = 5.39501 (1 samples)
	minimum = 5 (1 samples)
	maximum = 19 (1 samples)
Flit latency average = 5.39501 (1 samples)
	minimum = 5 (1 samples)
	maximum = 19 (1 samples)
Fragmentation average = 0 (1 samples)
	minimum = 0 (1 samples)
	maximum = 0 (1 samples)
Injected packet rate average = 0.0201257 (1 samples)
	minimum = 0.00669021 (1 samples)
	maximum = 0.0613269 (1 samples)
Accepted packet rate average = 0.0201257 (1 samples)
	minimum = 0.00780524 (1 samples)
	maximum = 0.0325218 (1 samples)
Injected flit rate average = 0.0201257 (1 samples)
	minimum = 0.00669021 (1 samples)
	maximum = 0.0613269 (1 samples)
Accepted flit rate average = 0.0201257 (1 samples)
	minimum = 0.00780524 (1 samples)
	maximum = 0.0325218 (1 samples)
Injected packet size average = 1 (1 samples)
Accepted packet size average = 1 (1 samples)
Hops average = 1 (1 samples)
----------------------------END-of-Interconnect-DETAILS-------------------------


gpgpu_simulation_time = 0 days, 0 hrs, 0 min, 2 sec (2 sec)
gpgpu_simulation_rate = 622680 (inst/sec)
gpgpu_simulation_rate = 2690 (cycle/sec)
gpgpu_silicon_slowdown = 260223x
GPGPU-Sim PTX: Setting up arguments for 8 bytes starting at 0x7ffeceb54778..
GPGPU-Sim PTX: Setting up arguments for 8 bytes starting at 0x7ffeceb54770..
GPGPU-Sim PTX: Setting up arguments for 8 bytes starting at 0x7ffeceb54768..
GPGPU-Sim PTX: Setting up arguments for 8 bytes starting at 0x7ffeceb54760..
GPGPU-Sim PTX: Setting up arguments for 4 bytes starting at 0x7ffeceb5475c..

GPGPU-Sim PTX: cudaLaunch for 0x0x562885910fa6 (mode=performance simulation) on stream 0
GPGPU-Sim PTX: finding reconvergence points for '_Z7Kernel2PbS_S_S_i'...
GPGPU-Sim PTX: Finding dominators for '_Z7Kernel2PbS_S_S_i'...
GPGPU-Sim PTX: Finding immediate dominators for '_Z7Kernel2PbS_S_S_i'...
GPGPU-Sim PTX: Finding postdominators for '_Z7Kernel2PbS_S_S_i'...
GPGPU-Sim PTX: Finding immediate postdominators for '_Z7Kernel2PbS_S_S_i'...
GPGPU-Sim PTX: pre-decoding instructions for '_Z7Kernel2PbS_S_S_i'...
GPGPU-Sim PTX: reconvergence points for _Z7Kernel2PbS_S_S_i...
GPGPU-Sim PTX:  1 (potential) branch divergence @  PC=0x230 (bfs.1.sm_30.ptx:128) @%p1 bra BB1_3;
GPGPU-Sim PTX:    immediate post dominator      @  PC=0x2c0 (bfs.1.sm_30.ptx:150) ret;
GPGPU-Sim PTX:  2 (potential) branch divergence @  PC=0x260 (bfs.1.sm_30.ptx:135) @%p2 bra BB1_3;
GPGPU-Sim PTX:    immediate post dominator      @  PC=0x2c0 (bfs.1.sm_30.ptx:150) ret;
GPGPU-Sim PTX: ... end of reconvergence points for _Z7Kernel2PbS_S_S_i
GPGPU-Sim PTX: ... done pre-decoding instructions for '_Z7Kernel2PbS_S_S_i'.
GPGPU-Sim PTX: pushing kernel '_Z7Kernel2PbS_S_S_i' to stream 0, gridDim= (128,1,1) blockDim = (512,1,1) 
GPGPU-Sim uArch: Shader 10 bind to kernel 2 '_Z7Kernel2PbS_S_S_i'
GPGPU-Sim uArch: CTA/core = 3, limited by: threads
GPGPU-Sim uArch: Shader 11 bind to kernel 2 '_Z7Kernel2PbS_S_S_i'
GPGPU-Sim uArch: Shader 12 bind to kernel 2 '_Z7Kernel2PbS_S_S_i'
GPGPU-Sim uArch: Shader 13 bind to kernel 2 '_Z7Kernel2PbS_S_S_i'
GPGPU-Sim uArch: Shader 14 bind to kernel 2 '_Z7Kernel2PbS_S_S_i'
GPGPU-Sim uArch: Shader 0 bind to kernel 2 '_Z7Kernel2PbS_S_S_i'
GPGPU-Sim uArch: Shader 1 bind to kernel 2 '_Z7Kernel2PbS_S_S_i'
GPGPU-Sim uArch: Shader 2 bind to kernel 2 '_Z7Kernel2PbS_S_S_i'
GPGPU-Sim uArch: Shader 3 bind to kernel 2 '_Z7Kernel2PbS_S_S_i'
GPGPU-Sim uArch: Shader 4 bind to kernel 2 '_Z7Kernel2PbS_S_S_i'
GPGPU-Sim uArch: Shader 5 bind to kernel 2 '_Z7Kernel2PbS_S_S_i'
GPGPU-Sim uArch: Shader 6 bind to kernel 2 '_Z7Kernel2PbS_S_S_i'
GPGPU-Sim uArch: Shader 7 bind to kernel 2 '_Z7Kernel2PbS_S_S_i'
GPGPU-Sim uArch: Shader 8 bind to kernel 2 '_Z7Kernel2PbS_S_S_i'
GPGPU-Sim uArch: Shader 9 bind to kernel 2 '_Z7Kernel2PbS_S_S_i'
Destroy streams for kernel 2: size 0
kernel_name = _Z7Kernel2PbS_S_S_i 
kernel_launch_uid = 2 
gpu_sim_cycle = 2425
gpu_sim_insn = 1114192
gpu_ipc =     459.4606
gpu_tot_sim_cycle = 7806
gpu_tot_sim_insn = 2359552
gpu_tot_ipc =     302.2741
gpu_tot_issued_cta = 256
gpu_occupancy = 86.9566% 
gpu_tot_occupancy = 68.5754% 
max_total_param_size = 0
gpu_stall_dramfull = 0
gpu_stall_icnt2sh    = 0
partiton_level_parallism =       0.2367
partiton_level_parallism_total  =       0.1505
partiton_level_parallism_util =       1.3732
partiton_level_parallism_util_total  =       1.3158
L2_BW  =      20.3216 GB/Sec
L2_BW_total  =      12.9791 GB/Sec
gpu_total_sim_rate=786517

========= Core cache stats =========
L1I_cache:
	L1I_total_cache_accesses = 43144
	L1I_total_cache_misses = 2400
	L1I_total_cache_miss_rate = 0.0556
	L1I_total_cache_pending_hits = 0
	L1I_total_cache_reservation_fails = 5869
L1D_cache:
	L1D_cache_core[0]: Access = 307, Miss = 93, Miss_rate = 0.303, Pending_hits = 180, Reservation_fails = 0
	L1D_cache_core[1]: Access = 272, Miss = 68, Miss_rate = 0.250, Pending_hits = 204, Reservation_fails = 0
	L1D_cache_core[2]: Access = 288, Miss = 72, Miss_rate = 0.250, Pending_hits = 216, Reservation_fails = 0
	L1D_cache_core[3]: Access = 272, Miss = 68, Miss_rate = 0.250, Pending_hits = 204, Reservation_fails = 0
	L1D_cache_core[4]: Access = 272, Miss = 68, Miss_rate = 0.250, Pending_hits = 204, Reservation_fails = 0
	L1D_cache_core[5]: Access = 276, Miss = 71, Miss_rate = 0.257, Pending_hits = 204, Reservation_fails = 0
	L1D_cache_core[6]: Access = 276, Miss = 71, Miss_rate = 0.257, Pending_hits = 204, Reservation_fails = 0
	L1D_cache_core[7]: Access = 288, Miss = 72, Miss_rate = 0.250, Pending_hits = 216, Reservation_fails = 0
	L1D_cache_core[8]: Access = 292, Miss = 75, Miss_rate = 0.257, Pending_hits = 216, Reservation_fails = 0
	L1D_cache_core[9]: Access = 276, Miss = 71, Miss_rate = 0.257, Pending_hits = 204, Reservation_fails = 0
	L1D_cache_core[10]: Access = 272, Miss = 68, Miss_rate = 0.250, Pending_hits = 204, Reservation_fails = 0
	L1D_cache_core[11]: Access = 280, Miss = 74, Miss_rate = 0.264, Pending_hits = 204, Reservation_fails = 0
	L1D_cache_core[12]: Access = 272, Miss = 68, Miss_rate = 0.250, Pending_hits = 204, Reservation_fails = 0
	L1D_cache_core[13]: Access = 272, Miss = 68, Miss_rate = 0.250, Pending_hits = 204, Reservation_fails = 0
	L1D_cache_core[14]: Access = 272, Miss = 68, Miss_rate = 0.250, Pending_hits = 204, Reservation_fails = 0
	L1D_total_cache_accesses = 4187
	L1D_total_cache_misses = 1075
	L1D_total_cache_miss_rate = 0.2567
	L1D_total_cache_pending_hits = 3072
	L1D_total_cache_reservation_fails = 0
	L1D_cache_data_port_util = 0.001
	L1D_cache_fill_port_util = 0.013
L1C_cache:
	L1C_total_cache_accesses = 24576
	L1C_total_cache_misses = 480
	L1C_total_cache_miss_rate = 0.0195
	L1C_total_cache_pending_hits = 0
	L1C_total_cache_reservation_fails = 3389
L1T_cache:
	L1T_total_cache_accesses = 0
	L1T_total_cache_misses = 0
	L1T_total_cache_pending_hits = 0
	L1T_total_cache_reservation_fails = 0

Total_core_cache_stats:
	Total_core_cache_stats_breakdown[GLOBAL_ACC_R][HIT] = 31
	Total_core_cache_stats_breakdown[GLOBAL_ACC_R][HIT_RESERVED] = 3072
	Total_core_cache_stats_breakdown[GLOBAL_ACC_R][MISS] = 1035
	Total_core_cache_stats_breakdown[GLOBAL_ACC_R][RESERVATION_FAIL] = 0
	Total_core_cache_stats_breakdown[GLOBAL_ACC_R][SECTOR_MISS] = 0
	Total_core_cache_stats_breakdown[LOCAL_ACC_R][HIT] = 0
	Total_core_cache_stats_breakdown[LOCAL_ACC_R][HIT_RESERVED] = 0
	Total_core_cache_stats_breakdown[LOCAL_ACC_R][MISS] = 0
	Total_core_cache_stats_breakdown[LOCAL_ACC_R][RESERVATION_FAIL] = 0
	Total_core_cache_stats_breakdown[LOCAL_ACC_R][SECTOR_MISS] = 0
	Total_core_cache_stats_breakdown[CONST_ACC_R][HIT] = 24096
	Total_core_cache_stats_breakdown[CONST_ACC_R][HIT_RESERVED] = 0
	Total_core_cache_stats_breakdown[CONST_ACC_R][MISS] = 480
	Total_core_cache_stats_breakdown[CONST_ACC_R][RESERVATION_FAIL] = 3389
	Total_core_cache_stats_breakdown[CONST_ACC_R][SECTOR_MISS] = 0
	Total_core_cache_stats_breakdown[TEXTURE_ACC_R][HIT] = 0
	Total_core_cache_stats_breakdown[TEXTURE_ACC_R][HIT_RESERVED] = 0
	Total_core_cache_stats_breakdown[TEXTURE_ACC_R][MISS] = 0
	Total_core_cache_stats_breakdown[TEXTURE_ACC_R][RESERVATION_FAIL] = 0
	Total_core_cache_stats_breakdown[TEXTURE_ACC_R][SECTOR_MISS] = 0
	Total_core_cache_stats_breakdown[GLOBAL_ACC_W][HIT] = 9
	Total_core_cache_stats_breakdown[GLOBAL_ACC_W][HIT_RESERVED] = 0
	Total_core_cache_stats_breakdown[GLOBAL_ACC_W][MISS] = 40
	Total_core_cache_stats_breakdown[GLOBAL_ACC_W][RESERVATION_FAIL] = 0
	Total_core_cache_stats_breakdown[GLOBAL_ACC_W][SECTOR_MISS] = 0
	Total_core_cache_stats_breakdown[LOCAL_ACC_W][HIT] = 0
	Total_core_cache_stats_breakdown[LOCAL_ACC_W][HIT_RESERVED] = 0
	Total_core_cache_stats_breakdown[LOCAL_ACC_W][MISS] = 0
	Total_core_cache_stats_breakdown[LOCAL_ACC_W][RESERVATION_FAIL] = 0
	Total_core_cache_stats_breakdown[LOCAL_ACC_W][SECTOR_MISS] = 0
	Total_core_cache_stats_breakdown[L1_WRBK_ACC][HIT] = 0
	Total_core_cache_stats_breakdown[L1_WRBK_ACC][HIT_RESERVED] = 0
	Total_core_cache_stats_breakdown[L1_WRBK_ACC][MISS] = 0
	Total_core_cache_stats_breakdown[L1_WRBK_ACC][RESERVATION_FAIL] = 0
	Total_core_cache_stats_breakdown[L1_WRBK_ACC][SECTOR_MISS] = 0
	Total_core_cache_stats_breakdown[L2_WRBK_ACC][HIT] = 0
	Total_core_cache_stats_breakdown[L2_WRBK_ACC][HIT_RESERVED] = 0
	Total_core_cache_stats_breakdown[L2_WRBK_ACC][MISS] = 0
	Total_core_cache_stats_breakdown[L2_WRBK_ACC][RESERVATION_FAIL] = 0
	Total_core_cache_stats_breakdown[L2_WRBK_ACC][SECTOR_MISS] = 0
	Total_core_cache_stats_breakdown[INST_ACC_R][HIT] = 40744
	Total_core_cache_stats_breakdown[INST_ACC_R][HIT_RESERVED] = 0
	Total_core_cache_stats_breakdown[INST_ACC_R][MISS] = 2400
	Total_core_cache_stats_breakdown[INST_ACC_R][RESERVATION_FAIL] = 5869
	Total_core_cache_stats_breakdown[INST_ACC_R][SECTOR_MISS] = 0
	Total_core_cache_stats_breakdown[L1_WR_ALLOC_R][HIT] = 0
	Total_core_cache_stats_breakdown[L1_WR_ALLOC_R][HIT_RESERVED] = 0
	Total_core_cache_stats_breakdown[L1_WR_ALLOC_R][MISS] = 0
	Total_core_cache_stats_breakdown[L1_WR_ALLOC_R][RESERVATION_FAIL] = 0
	Total_core_cache_stats_breakdown[L1_WR_ALLOC_R][SECTOR_MISS] = 0
	Total_core_cache_stats_breakdown[L2_WR_ALLOC_R][HIT] = 0
	Total_core_cache_stats_breakdown[L2_WR_ALLOC_R][HIT_RESERVED] = 0
	Total_core_cache_stats_breakdown[L2_WR_ALLOC_R][MISS] = 0
	Total_core_cache_stats_breakdown[L2_WR_ALLOC_R][RESERVATION_FAIL] = 0
	Total_core_cache_stats_breakdown[L2_WR_ALLOC_R][SECTOR_MISS] = 0
	Total_core_cache_stats_breakdown[GLOBAL_ACC_R][TOTAL_ACCESS] = 4138
	Total_core_cache_stats_breakdown[CONST_ACC_R][TOTAL_ACCESS] = 24576
	Total_core_cache_stats_breakdown[GLOBAL_ACC_W][TOTAL_ACCESS] = 49
	Total_core_cache_stats_breakdown[INST_ACC_R][TOTAL_ACCESS] = 43144

Total_core_cache_fail_stats:
	Total_core_cache_fail_stats_breakdown[CONST_ACC_R][MSHR_MERGE_ENRTY_FAIL] = 3389
	Total_core_cache_fail_stats_breakdown[INST_ACC_R][MSHR_MERGE_ENRTY_FAIL] = 5869
ctas_completed 256, Shader 0 warp_id issue ditsribution:
warp_id:
0, 1, 2, 3, 4, 5, 6, 7, 8, 9, 10, 11, 12, 13, 14, 15, 16, 17, 18, 19, 20, 21, 22, 23, 24, 25, 26, 27, 28, 29, 30, 31, 32, 33, 34, 35, 36, 37, 38, 39, 40, 41, 42, 43, 44, 45, 46, 47, 
distro:
261, 74, 74, 74, 74, 74, 74, 74, 74, 74, 74, 74, 74, 74, 74, 74, 154, 154, 154, 154, 154, 165, 154, 154, 154, 154, 154, 154, 165, 154, 154, 154, 54, 54, 54, 54, 54, 54, 54, 54, 54, 54, 54, 54, 54, 54, 54, 54, 
gpgpu_n_tot_thrd_icount = 2499168
gpgpu_n_tot_w_icount = 78099
gpgpu_n_stall_shd_mem = 3389
gpgpu_n_mem_read_local = 0
gpgpu_n_mem_write_local = 0
gpgpu_n_mem_read_global = 1035
gpgpu_n_mem_write_global = 49
gpgpu_n_mem_texture = 0
gpgpu_n_mem_const = 15
gpgpu_n_load_insn  = 131114
gpgpu_n_store_insn = 49
gpgpu_n_shmem_insn = 0
gpgpu_n_sstarr_insn = 0
gpgpu_n_tex_insn = 0
gpgpu_n_const_mem_insn = 0
gpgpu_n_param_mem_insn = 786432
gpgpu_n_shmem_bkconflict = 0
gpgpu_n_cache_bkconflict = 0
gpgpu_n_intrawarp_mshr_merge = 0
gpgpu_n_cmem_portconflict = 3389
gpgpu_stall_shd_mem[c_mem][resource_stall] = 3389
gpgpu_stall_shd_mem[s_mem][bk_conf] = 0
gpgpu_stall_shd_mem[gl_mem][resource_stall] = 0
gpgpu_stall_shd_mem[gl_mem][coal_stall] = 0
gpgpu_stall_shd_mem[gl_mem][data_port_stall] = 0
gpu_reg_bank_conflict_stalls = 0
Warp Occupancy Distribution:
Stall:19139	W0_Idle:32647	W0_Scoreboard:28911	W1:275	W2:0	W3:0	W4:0	W5:0	W6:0	W7:0	W8:0	W9:0	W10:0	W11:0	W12:0	W13:0	W14:0	W15:0	W16:0	W17:0	W18:0	W19:0	W20:0	W21:0	W22:0	W23:0	W24:0	W25:0	W26:0	W27:0	W28:0	W29:0	W30:0	W31:0	W32:77824
single_issue_nums: WS0:39143	WS1:38956	
dual_issue_nums: WS0:0	WS1:0	
traffic_breakdown_coretomem[CONST_ACC_R] = 120 {8:15,}
traffic_breakdown_coretomem[GLOBAL_ACC_R] = 8280 {8:1035,}
traffic_breakdown_coretomem[GLOBAL_ACC_W] = 1960 {40:49,}
traffic_breakdown_coretomem[INST_ACC_R] = 608 {8:76,}
traffic_breakdown_memtocore[CONST_ACC_R] = 1200 {40:30,}
traffic_breakdown_memtocore[GLOBAL_ACC_R] = 165600 {40:4140,}
traffic_breakdown_memtocore[GLOBAL_ACC_W] = 392 {8:49,}
traffic_breakdown_memtocore[INST_ACC_R] = 12160 {40:304,}
maxmflatency = 268 
max_icnt2mem_latency = 45 
maxmrqlatency = 21 
max_icnt2sh_latency = 34 
averagemflatency = 134 
avg_icnt2mem_latency = 11 
avg_mrq_latency = 8 
avg_icnt2sh_latency = 8 
mrq_lat_table:12 	3 	0 	12 	7 	0 	0 	0 	0 	0 	0 	0 	0 	0 	0 	0 	0 	0 	0 	0 	0 	0 	0 	0 	0 	0 	0 	0 	0 	0 	0 	0 	
dq_lat_table:0 	0 	0 	0 	0 	0 	0 	0 	0 	0 	0 	0 	0 	0 	0 	0 	0 	0 	0 	0 	0 	0 	0 	0 	0 	0 	0 	0 	0 	0 	0 	0 	
mf_lat_table:0 	0 	0 	0 	0 	0 	0 	4208 	11 	0 	0 	0 	0 	0 	0 	0 	0 	0 	0 	0 	0 	0 	0 	0 	0 	0 	0 	0 	0 	0 	0 	0 	
icnt2mem_lat_table:0 	0 	43 	40 	8 	1084 	0 	0 	0 	0 	0 	0 	0 	0 	0 	0 	0 	0 	0 	0 	0 	0 	0 	0 	
icnt2sh_lat_table:0 	0 	3513 	539 	163 	4 	0 	0 	0 	0 	0 	0 	0 	0 	0 	0 	0 	0 	0 	0 	0 	0 	0 	0 	
mf_lat_pw_table:0 	0 	0 	0 	0 	0 	0 	13 	0 	0 	0 	0 	0 	0 	0 	0 	0 	0 	0 	0 	0 	0 	0 	0 	0 	0 	0 	0 	0 	0 	0 	0 	
maximum concurrent accesses to same row:
dram[0]:         4         0         0         0         0         0         0         0         0         0         0         0         0         0         0         0 
dram[1]:         0         0         0         0         0         0         0         0         0         0         0         0         0         0         0         0 
dram[2]:         0         0         0         0         0         0         0         0         0         0         0         0         0         0         0         0 
dram[3]:         0         0         0         0         0         0         0         0         0         0         0         0         0         0         0         0 
dram[4]:         0         0         0         0         0         0         0         0         0         0         0         0         0         0         0         0 
dram[5]:         0         0         0         0         0         0         0         0         0         0         0         0         0         0         0         0 
maximum service time to same row:
dram[0]:       567         0         0         0         0         0         0         0         0         0         0         0         0         0         0         0 
dram[1]:      1297         0         0         0         0         0         0         0         0         0         0         0         0         0         0         0 
dram[2]:       304         0         0         0         0      2051         0         0         0         0         0         0         0         0         0         0 
[...]
dram[3]:       1288      1300      1497      1516      1372      1331      1296      1258      1369      1168      1313      1231      1554      1454      1490      1501
dram[4]:       1396      1341      1492      1470      1542      1369      1545      1659      1594      1366      1338      1303      1517      1397      1524      1499
dram[5]:       1426      1357      1463      1564      1421      1327      1567      1522      1510      1311      1418      1354      1366      1322      1344      1434
Memory Partition 0: 
Cache L2_bank_000:
MSHR contents

Cache L2_bank_001:
MSHR contents

In Dram Latency Queue (total = 0): 
DRAM[0]: 16 bks, busW=4 BL=8 CL=12, tRRD=6 tCCD=2, tRCD=12 tRAS=28 tRP=12 tRC=40
n_cmd=713947 n_nop=657446 n_act=4149 n_pre=4133 n_ref_event=94732067769936 n_req=46332 n_rd=43065 n_rd_L2_A=0 n_write=0 n_wr_bk=5384 bw_util=0.1357
n_activity=230349 dram_eff=0.4207
bk0: 3228a 687867i bk1: 3189a 685482i bk2: 2871a 686521i bk3: 3102a 684778i bk4: 2938a 683626i bk5: 3186a 681659i bk6: 2786a 681419i bk7: 2978a 677044i bk8: 2380a 698538i bk9: 2516a 697343i bk10: 2080a 702240i bk11: 2132a 701660i bk12: 2325a 699482i bk13: 2384a 698339i bk14: 2433a 689271i bk15: 2537a 690225i 

------------------------------------------------------------------------

Row_Buffer_Locality = 0.910623
Row_Buffer_Locality_read = 0.940369
Row_Buffer_Locality_write = 0.518519
Bank_Level_Parallism = 2.341273
Bank_Level_Parallism_Col = 0.674105
Bank_Level_Parallism_Ready = 1.467466
write_to_read_ratio_blp_rw_average = 0.000000
GrpLevelPara = 0.000000 

BW Util details:
bwutil = 0.135722 
total_CMD = 713947 
util_bw = 96898 
Wasted_Col = 61238 
Wasted_Row = 25452 
Idle = 530359 

BW Util Bottlenecks: 
RCDc_limit = 22885 
RCDWRc_limit = 7134 
WTRc_limit = 6949 
RTWc_limit = 29112 
CCDLc_limit = 30485 
rwq = 0 
CCDLc_limit_alone = 24425 
WTRc_limit_alone = 6574 
RTWc_limit_alone = 23427 

Commands details: 
total_CMD = 713947 
n_nop = 657446 
Read = 43065 
Write = 0 
L2_Alloc = 0 
L2_WB = 5384 
n_act = 4149 
n_pre = 4133 
n_ref = 94732067769936 
n_req = 46332 
total_req = 48449 

Dual Bus Interface Util: 
issued_total_row = 8282 
issued_total_col = 48449 
Row_Bus_Util =  0.011600 
CoL_Bus_Util = 0.067861 
Either_Row_CoL_Bus_Util = 0.079139 
Issued_on_Two_Bus_Simul_Util = 0.000322 
issued_two_Eff = 0.004071 
queue_avg = 2.397850 


dram_util_bins: 0 0 0 0 0 0 0 0 0 0
dram_eff_bins: 0 0 0 0 0 0 0 0 0 0
mrqq: max=64 avg=2.39785
Memory Partition 1: 
Cache L2_bank_002:
MSHR contents

Cache L2_bank_003:
MSHR contents

In Dram Latency Queue (total = 0): 
DRAM[1]: 16 bks, busW=4 BL=8 CL=12, tRRD=6 tCCD=2, tRCD=12 tRAS=28 tRP=12 tRC=40
n_cmd=713947 n_nop=658676 n_act=4072 n_pre=4056 n_ref_event=4560869750798743682 n_req=45252 n_rd=42076 n_rd_L2_A=0 n_write=0 n_wr_bk=5297 bw_util=0.1327
n_activity=225253 dram_eff=0.4206
bk0: 3048a 688300i bk1: 3026a 686526i bk2: 2877a 688176i bk3: 2949a 686272i bk4: 3005a 682626i bk5: 2995a 683683i bk6: 2718a 682347i bk7: 2896a 680393i bk8: 2504a 697773i bk9: 2328a 698053i bk10: 2068a 702566i bk11: 2116a 702243i bk12: 2376a 695751i bk13: 2368a 697362i bk14: 2329a 691406i bk15: 2473a 688629i 

------------------------------------------------------------------------

Row_Buffer_Locality = 0.910148
Row_Buffer_Locality_read = 0.939728
Row_Buffer_Locality_write = 0.518262
Bank_Level_Parallism = 2.349467
Bank_Level_Parallism_Col = 2.374199
Bank_Level_Parallism_Ready = 1.467409
write_to_read_ratio_blp_rw_average = 0.295023
GrpLevelPara = 1.626108 

BW Util details:
bwutil = 0.132707 
total_CMD = 713947 
util_bw = 94746 
Wasted_Col = 59846 
Wasted_Row = 25104 
Idle = 534251 

BW Util Bottlenecks: 
RCDc_limit = 22655 
RCDWRc_limit = 6879 
WTRc_limit = 6422 
RTWc_limit = 27911 
CCDLc_limit = 30124 
rwq = 0 
CCDLc_limit_alone = 24064 
WTRc_limit_alone = 6000 
RTWc_limit_alone = 22273 

Commands details: 
total_CMD = 713947 
n_nop = 658676 
Read = 42076 
Write = 0 
L2_Alloc = 0 
L2_WB = 5297 
n_act = 4072 
n_pre = 4056 
n_ref = 4560869750798743682 
n_req = 45252 
total_req = 47373 

Dual Bus Interface Util: 
issued_total_row = 8128 
issued_total_col = 47373 
Row_Bus_Util =  0.011385 
CoL_Bus_Util = 0.066354 
Either_Row_CoL_Bus_Util = 0.077416 
Issued_on_Two_Bus_Simul_Util = 0.000322 
issued_two_Eff = 0.004161 
queue_avg = 2.307858 


dram_util_bins: 0 0 0 0 0 0 0 0 0 0
dram_eff_bins: 0 0 0 0 0 0 0 0 0 0
mrqq: max=64 avg=2.30786
Memory Partition 2: 
Cache L2_bank_004:
MSHR contents

Cache L2_bank_005:
MSHR contents

In Dram Latency Queue (total = 0): 
DRAM[2]: 16 bks, busW=4 BL=8 CL=12, tRRD=6 tCCD=2, tRCD=12 tRAS=28 tRP=12 tRC=40
n_cmd=713947 n_nop=658097 n_act=4131 n_pre=4115 n_ref_event=0 n_req=45727 n_rd=42440 n_rd_L2_A=0 n_write=0 n_wr_bk=5408 bw_util=0.134
n_activity=225269 dram_eff=0.4248
bk0: 3098a 687094i bk1: 3042a 686365i bk2: 2918a 686094i bk3: 3001a 686166i bk4: 2961a 683332i bk5: 3056a 681593i bk6: 2851a 679804i bk7: 2901a 677465i bk8: 2396a 697187i bk9: 2436a 697622i bk10: 2136a 701307i bk11: 2128a 702203i bk12: 2301a 697489i bk13: 2353a 696726i bk14: 2398a 690575i bk15: 2464a 689829i 

------------------------------------------------------------------------

Row_Buffer_Locality = 0.909747
Row_Buffer_Locality_read = 0.940598
Row_Buffer_Locality_write = 0.511409
Bank_Level_Parallism = 2.409901
Bank_Level_Parallism_Col = 2.431186
Bank_Level_Parallism_Ready = 1.477589
write_to_read_ratio_blp_rw_average = 0.307426
GrpLevelPara = 1.651883 

BW Util details:
bwutil = 0.134038 
total_CMD = 713947 
util_bw = 95696 
Wasted_Col = 59632 
Wasted_Row = 24753 
Idle = 533866 

BW Util Bottlenecks: 
RCDc_limit = 22134 
RCDWRc_limit = 7087 
WTRc_limit = 6216 
RTWc_limit = 29857 
CCDLc_limit = 30098 
rwq = 0 
CCDLc_limit_alone = 23848 
WTRc_limit_alone = 5853 
RTWc_limit_alone = 23970 

Commands details: 
total_CMD = 713947 
n_nop = 658097 
Read = 42440 
Write = 0 
L2_Alloc = 0 
L2_WB = 5408 
n_act = 4131 
n_pre = 4115 
n_ref = 0 
n_req = 45727 
total_req = 47848 

Dual Bus Interface Util: 
issued_total_row = 8246 
issued_total_col = 47848 
Row_Bus_Util =  0.011550 
CoL_Bus_Util = 0.067019 
Either_Row_CoL_Bus_Util = 0.078227 
Issued_on_Two_Bus_Simul_Util = 0.000342 
issued_two_Eff = 0.004369 
queue_avg = 2.481359 


dram_util_bins: 0 0 0 0 0 0 0 0 0 0
dram_eff_bins: 0 0 0 0 0 0 0 0 0 0
mrqq: max=64 avg=2.48136
Memory Partition 3: 
Cache L2_bank_006:
MSHR contents

Cache L2_bank_007:
MSHR contents

In Dram Latency Queue (total = 0): 
DRAM[3]: 16 bks, busW=4 BL=8 CL=12, tRRD=6 tCCD=2, tRCD=12 tRAS=28 tRP=12 tRC=40
n_cmd=713947 n_nop=658469 n_act=4061 n_pre=4045 n_ref_event=13984 n_req=45513 n_rd=42329 n_rd_L2_A=0 n_write=0 n_wr_bk=5298 bw_util=0.1334
n_activity=224414 dram_eff=0.4245
bk0: 3045a 688000i bk1: 3168a 685991i bk2: 2937a 687388i bk3: 2941a 688345i bk4: 2993a 685185i bk5: 3023a 681835i bk6: 2802a 680555i bk7: 2810a 679801i bk8: 2364a 698057i bk9: 2464a 697729i bk10: 2116a 702144i bk11: 2068a 703331i bk12: 2341a 699839i bk13: 2364a 695542i bk14: 2461a 690411i bk15: 2432a 689912i 

------------------------------------------------------------------------

Row_Buffer_Locality = 0.910905
Row_Buffer_Locality_read = 0.940584
Row_Buffer_Locality_write = 0.516332
Bank_Level_Parallism = 2.352216
Bank_Level_Parallism_Col = 2.372727
Bank_Level_Parallism_Ready = 1.461797
write_to_read_ratio_blp_rw_average = 0.296496
GrpLevelPara = 1.644893 

BW Util details:
bwutil = 0.133419 
total_CMD = 713947 
util_bw = 95254 
Wasted_Col = 58492 
Wasted_Row = 25011 
Idle = 535190 

BW Util Bottlenecks: 
RCDc_limit = 22069 
RCDWRc_limit = 6868 
WTRc_limit = 5956 
RTWc_limit = 27185 
CCDLc_limit = 29294 
rwq = 0 
CCDLc_limit_alone = 23678 
WTRc_limit_alone = 5653 
RTWc_limit_alone = 21872 

Commands details: 
total_CMD = 713947 
n_nop = 658469 
Read = 42329 
Write = 0 
L2_Alloc = 0 
L2_WB = 5298 
n_act = 4061 
n_pre = 4045 
n_ref = 13984 
n_req = 45513 
total_req = 47627 

Dual Bus Interface Util: 
issued_total_row = 8106 
issued_total_col = 47627 
Row_Bus_Util =  0.011354 
CoL_Bus_Util = 0.066709 
Either_Row_CoL_Bus_Util = 0.077706 
Issued_on_Two_Bus_Simul_Util = 0.000357 
issued_two_Eff = 0.004596 
queue_avg = 2.412734 


dram_util_bins: 0 0 0 0 0 0 0 0 0 0
dram_eff_bins: 0 0 0 0 0 0 0 0 0 0
mrqq: max=64 avg=2.41273
Memory Partition 4: 
Cache L2_bank_008:
MSHR contents

Cache L2_bank_009:
MSHR contents

In Dram Latency Queue (total = 0): 
DRAM[4]: 16 bks, busW=4 BL=8 CL=12, tRRD=6 tCCD=2, tRCD=12 tRAS=28 tRP=12 tRC=40
n_cmd=713947 n_nop=658955 n_act=3985 n_pre=3969 n_ref_event=0 n_req=45150 n_rd=41963 n_rd_L2_A=0 n_write=0 n_wr_bk=5292 bw_util=0.1324
n_activity=223240 dram_eff=0.4234
bk0: 3161a 685248i bk1: 3081a 685982i bk2: 2941a 685609i bk3: 2885a 690040i bk4: 2927a 685623i bk5: 3005a 682375i bk6: 2897a 681450i bk7: 2761a 680558i bk8: 2404a 697972i bk9: 2444a 697247i bk10: 2092a 702091i bk11: 1980a 703054i bk12: 2328a 696961i bk13: 2392a 697789i bk14: 2441a 690419i bk15: 2224a 691934i 

------------------------------------------------------------------------

Row_Buffer_Locality = 0.911872
Row_Buffer_Locality_read = 0.941353
Row_Buffer_Locality_write = 0.523690
Bank_Level_Parallism = 2.349573
Bank_Level_Parallism_Col = 2.385488
Bank_Level_Parallism_Ready = 1.478150
write_to_read_ratio_blp_rw_average = 0.296667
GrpLevelPara = 1.631305 

BW Util details:
bwutil = 0.132377 
total_CMD = 713947 
util_bw = 94510 
Wasted_Col = 58694 
Wasted_Row = 25515 
Idle = 535228 

BW Util Bottlenecks: 
RCDc_limit = 21772 
RCDWRc_limit = 6957 
WTRc_limit = 6221 
RTWc_limit = 26705 
CCDLc_limit = 29682 
rwq = 0 
CCDLc_limit_alone = 23908 
WTRc_limit_alone = 5895 
RTWc_limit_alone = 21257 

Commands details: 
total_CMD = 713947 
n_nop = 658955 
Read = 41963 
Write = 0 
L2_Alloc = 0 
L2_WB = 5292 
n_act = 3985 
n_pre = 3969 
n_ref = 0 
n_req = 45150 
total_req = 47255 

Dual Bus Interface Util: 
issued_total_row = 7954 
issued_total_col = 47255 
Row_Bus_Util =  0.011141 
CoL_Bus_Util = 0.066188 
Either_Row_CoL_Bus_Util = 0.077025 
Issued_on_Two_Bus_Simul_Util = 0.000304 
issued_two_Eff = 0.003946 
queue_avg = 2.391191 


dram_util_bins: 0 0 0 0 0 0 0 0 0 0
dram_eff_bins: 0 0 0 0 0 0 0 0 0 0
mrqq: max=64 avg=2.39119
Memory Partition 5: 
Cache L2_bank_010:
MSHR contents

Cache L2_bank_011:
MSHR contents

In Dram Latency Queue (total = 0): 
DRAM[5]: 16 bks, busW=4 BL=8 CL=12, tRRD=6 tCCD=2, tRCD=12 tRAS=28 tRP=12 tRC=40
n_cmd=713947 n_nop=658049 n_act=4121 n_pre=4105 n_ref_event=94732070361104 n_req=45784 n_rd=42533 n_rd_L2_A=0 n_write=0 n_wr_bk=5375 bw_util=0.1342
n_activity=228530 dram_eff=0.4193
bk0: 3161a 685272i bk1: 3178a 686685i bk2: 2993a 688031i bk3: 2853a 688099i bk4: 2910a 685135i bk5: 3000a 683219i bk6: 2861a 679728i bk7: 2789a 679818i bk8: 2420a 697948i bk9: 2616a 697168i bk10: 2104a 702283i bk11: 2052a 703122i bk12: 2256a 696995i bk13: 2400a 695931i bk14: 2504a 690210i bk15: 2436a 689406i 

------------------------------------------------------------------------

Row_Buffer_Locality = 0.910165
Row_Buffer_Locality_read = 0.940399
Row_Buffer_Locality_write = 0.514611
Bank_Level_Parallism = 2.336479
Bank_Level_Parallism_Col = 2.365964
Bank_Level_Parallism_Ready = 1.450181
write_to_read_ratio_blp_rw_average = 0.300392
GrpLevelPara = 1.634225 

BW Util details:
bwutil = 0.134206 
total_CMD = 713947 
util_bw = 95816 
Wasted_Col = 60510 
Wasted_Row = 25861 
Idle = 531760 

BW Util Bottlenecks: 
RCDc_limit = 22822 
RCDWRc_limit = 7278 
WTRc_limit = 6515 
RTWc_limit = 28646 
CCDLc_limit = 30035 
rwq = 0 
CCDLc_limit_alone = 24262 
WTRc_limit_alone = 6145 
RTWc_limit_alone = 23243 

Commands details: 
total_CMD = 713947 
n_nop = 658049 
Read = 42533 
Write = 0 
L2_Alloc = 0 
L2_WB = 5375 
n_act = 4121 
n_pre = 4105 
n_ref = 94732070361104 
n_req = 45784 
total_req = 47908 

Dual Bus Interface Util: 
issued_total_row = 8226 
issued_total_col = 47908 
Row_Bus_Util =  0.011522 
CoL_Bus_Util = 0.067103 
Either_Row_CoL_Bus_Util = 0.078294 
Issued_on_Two_Bus_Simul_Util = 0.000331 
issued_two_Eff = 0.004222 
queue_avg = 2.404149 


dram_util_bins: 0 0 0 0 0 0 0 0 0 0
dram_eff_bins: 0 0 0 0 0 0 0 0 0 0
mrqq: max=64 avg=2.40415

========= L2 cache stats =========
L2_cache_bank[0]: Access = 251091, Miss = 36233, Miss_rate = 0.144, Pending_hits = 46, Reservation_fails = 362
L2_cache_bank[1]: Access = 248433, Miss = 30760, Miss_rate = 0.124, Pending_hits = 12, Reservation_fails = 13
L2_cache_bank[2]: Access = 242343, Miss = 29704, Miss_rate = 0.123, Pending_hits = 21, Reservation_fails = 120
L2_cache_bank[3]: Access = 248926, Miss = 29848, Miss_rate = 0.120, Pending_hits = 17, Reservation_fails = 17
L2_cache_bank[4]: Access = 243005, Miss = 30375, Miss_rate = 0.125, Pending_hits = 43, Reservation_fails = 229
L2_cache_bank[5]: Access = 242828, Miss = 30203, Miss_rate = 0.124, Pending_hits = 29, Reservation_fails = 14
L2_cache_bank[6]: Access = 243469, Miss = 29454, Miss_rate = 0.121, Pending_hits = 8, Reservation_fails = 16
L2_cache_bank[7]: Access = 243052, Miss = 29927, Miss_rate = 0.123, Pending_hits = 19, Reservation_fails = 14
L2_cache_bank[8]: Access = 247437, Miss = 29339, Miss_rate = 0.119, Pending_hits = 16, Reservation_fails = 19
L2_cache_bank[9]: Access = 241258, Miss = 28993, Miss_rate = 0.120, Pending_hits = 21, Reservation_fails = 19
L2_cache_bank[10]: Access = 247431, Miss = 29806, Miss_rate = 0.120, Pending_hits = 11, Reservation_fails = 14
L2_cache_bank[11]: Access = 243766, Miss = 29767, Miss_rate = 0.122, Pending_hits = 18, Reservation_fails = 9
L2_total_cache_accesses = 2943039
L2_total_cache_misses = 364409
L2_total_cache_miss_rate = 0.1238
L2_total_cache_pending_hits = 261
L2_total_cache_reservation_fails = 846
L2_total_cache_breakdown:
	L2_cache_stats_breakdown[GLOBAL_ACC_R][HIT] = 2392738
	L2_cache_stats_breakdown[GLOBAL_ACC_R][HIT_RESERVED] = 94
	L2_cache_stats_breakdown[GLOBAL_ACC_R][MISS] = 59277
	L2_cache_stats_breakdown[GLOBAL_ACC_R][RESERVATION_FAIL] = 194
	L2_cache_stats_breakdown[GLOBAL_ACC_R][SECTOR_MISS] = 195103
	L2_cache_stats_breakdown[LOCAL_ACC_R][HIT] = 0
	L2_cache_stats_breakdown[LOCAL_ACC_R][HIT_RESERVED] = 0
	L2_cache_stats_breakdown[LOCAL_ACC_R][MISS] = 0
	L2_cache_stats_breakdown[LOCAL_ACC_R][RESERVATION_FAIL] = 0
	L2_cache_stats_breakdown[LOCAL_ACC_R][SECTOR_MISS] = 0
	L2_cache_stats_breakdown[CONST_ACC_R][HIT] = 22
	L2_cache_stats_breakdown[CONST_ACC_R][HIT_RESERVED] = 6
	L2_cache_stats_breakdown[CONST_ACC_R][MISS] = 1
	L2_cache_stats_breakdown[CONST_ACC_R][RESERVATION_FAIL] = 115
	L2_cache_stats_breakdown[CONST_ACC_R][SECTOR_MISS] = 1
	L2_cache_stats_breakdown[TEXTURE_ACC_R][HIT] = 0
	L2_cache_stats_breakdown[TEXTURE_ACC_R][HIT_RESERVED] = 0
	L2_cache_stats_breakdown[TEXTURE_ACC_R][MISS] = 0
	L2_cache_stats_breakdown[TEXTURE_ACC_R][RESERVATION_FAIL] = 0
	L2_cache_stats_breakdown[TEXTURE_ACC_R][SECTOR_MISS] = 0
	L2_cache_stats_breakdown[GLOBAL_ACC_W][HIT] = 185333
	L2_cache_stats_breakdown[GLOBAL_ACC_W][HIT_RESERVED] = 101
	L2_cache_stats_breakdown[GLOBAL_ACC_W][MISS] = 14753
	L2_cache_stats_breakdown[GLOBAL_ACC_W][RESERVATION_FAIL] = 0
	L2_cache_stats_breakdown[GLOBAL_ACC_W][SECTOR_MISS] = 95250
	L2_cache_stats_breakdown[LOCAL_ACC_W][HIT] = 0
	L2_cache_stats_breakdown[LOCAL_ACC_W][HIT_RESERVED] = 0
	L2_cache_stats_breakdown[LOCAL_ACC_W][MISS] = 0
	L2_cache_stats_breakdown[LOCAL_ACC_W][RESERVATION_FAIL] = 0
	L2_cache_stats_breakdown[LOCAL_ACC_W][SECTOR_MISS] = 0
	L2_cache_stats_breakdown[L1_WRBK_ACC][HIT] = 0
	L2_cache_stats_breakdown[L1_WRBK_ACC][HIT_RESERVED] = 0
	L2_cache_stats_breakdown[L1_WRBK_ACC][MISS] = 0
	L2_cache_stats_breakdown[L1_WRBK_ACC][RESERVATION_FAIL] = 0
	L2_cache_stats_breakdown[L1_WRBK_ACC][SECTOR_MISS] = 0
	L2_cache_stats_breakdown[L2_WRBK_ACC][HIT] = 0
	L2_cache_stats_breakdown[L2_WRBK_ACC][HIT_RESERVED] = 0
	L2_cache_stats_breakdown[L2_WRBK_ACC][MISS] = 0
	L2_cache_stats_breakdown[L2_WRBK_ACC][RESERVATION_FAIL] = 0
	L2_cache_stats_breakdown[L2_WRBK_ACC][SECTOR_MISS] = 0
	L2_cache_stats_breakdown[INST_ACC_R][HIT] = 276
	L2_cache_stats_breakdown[INST_ACC_R][HIT_RESERVED] = 60
	L2_cache_stats_breakdown[INST_ACC_R][MISS] = 6
	L2_cache_stats_breakdown[INST_ACC_R][RESERVATION_FAIL] = 537
	L2_cache_stats_breakdown[INST_ACC_R][SECTOR_MISS] = 18
	L2_cache_stats_breakdown[L1_WR_ALLOC_R][HIT] = 0
	L2_cache_stats_breakdown[L1_WR_ALLOC_R][HIT_RESERVED] = 0
	L2_cache_stats_breakdown[L1_WR_ALLOC_R][MISS] = 0
	L2_cache_stats_breakdown[L1_WR_ALLOC_R][RESERVATION_FAIL] = 0
	L2_cache_stats_breakdown[L1_WR_ALLOC_R][SECTOR_MISS] = 0
	L2_cache_stats_breakdown[L2_WR_ALLOC_R][HIT] = 0
	L2_cache_stats_breakdown[L2_WR_ALLOC_R][HIT_RESERVED] = 0
	L2_cache_stats_breakdown[L2_WR_ALLOC_R][MISS] = 0
	L2_cache_stats_breakdown[L2_WR_ALLOC_R][RESERVATION_FAIL] = 0
	L2_cache_stats_breakdown[L2_WR_ALLOC_R][SECTOR_MISS] = 0
	L2_cache_stats_breakdown[GLOBAL_ACC_R][TOTAL_ACCESS] = 2647212
	L2_cache_stats_breakdown[CONST_ACC_R][TOTAL_ACCESS] = 30
	L2_cache_stats_breakdown[GLOBAL_ACC_W][TOTAL_ACCESS] = 295437
	L2_cache_stats_breakdown[INST_ACC_R][TOTAL_ACCESS] = 360
L2_total_cache_reservation_fail_breakdown:
	L2_cache_stats_fail_breakdown[GLOBAL_ACC_R][MISS_QUEUE_FULL] = 194
	L2_cache_stats_fail_breakdown[CONST_ACC_R][MSHR_MERGE_ENRTY_FAIL] = 115
	L2_cache_stats_fail_breakdown[INST_ACC_R][MSHR_MERGE_ENRTY_FAIL] = 537
L2_cache_data_port_util = 0.399
L2_cache_fill_port_util = 0.039

icnt_total_pkts_mem_to_simt=2943039
icnt_total_pkts_simt_to_mem=957345
LD_mem_lat_dist  0 0 0 0 0 0 0 0 0 0 0 0 0 0 0 0 0 0 0 0 0 0 0 0 0 0 0
ST_mem_lat_dist  0 0 0 0 0 0 0 0 0 0 0 0 0 0 0 0 0 0 0 0 0 0 0 0 0 0 0
----------------------------Interconnect-DETAILS--------------------------------
Class 0:
Packet latency average = 5.06914
	minimum = 5
	maximum = 10
Network latency average = 5.06914
	minimum = 5
	maximum = 10
Slowest packet = 3897954
Flit latency average = 5.06914
	minimum = 5
	maximum = 10
Slowest flit = 3898081
Fragmentation average = 0
	minimum = 0
	maximum = 0
Injected packet rate average = 0.0578845
	minimum = 0.019536 (at node 1)
	maximum = 0.107448 (at node 15)
Accepted packet rate average = 0.0578845
	minimum = 0.025641 (at node 16)
	maximum = 0.0879121 (at node 0)
Injected flit rate average = 0.0578845
	minimum = 0.019536 (at node 1)
	maximum = 0.107448 (at node 15)
Accepted flit rate average= 0.0578845
	minimum = 0.025641 (at node 16)
	maximum = 0.0879121 (at node 0)
Injected packet length average = 1
Accepted packet length average = 1
Total in-flight flits = 0 (0 measured)
====== Overall Traffic Statistics ======
====== Traffic class 0 ======
Packet latency average = 25.2946 (20 samples)
	minimum = 5 (20 samples)
	maximum = 172.3 (20 samples)
Network latency average = 23.8378 (20 samples)
	minimum = 5 (20 samples)
	maximum = 168.8 (20 samples)
Flit latency average = 23.8376 (20 samples)
	minimum = 5 (20 samples)
	maximum = 168.8 (20 samples)
Fragmentation average = 3.64428e-06 (20 samples)
	minimum = 0 (20 samples)
	maximum = 3.4 (20 samples)
Injected packet rate average = 0.125268 (20 samples)
	minimum = 0.0640777 (20 samples)
	maximum = 0.32299 (20 samples)
Accepted packet rate average = 0.125268 (20 samples)
	minimum = 0.0763318 (20 samples)
	maximum = 0.284667 (20 samples)
Injected flit rate average = 0.125269 (20 samples)
	minimum = 0.0640789 (20 samples)
	maximum = 0.32299 (20 samples)
Accepted flit rate average = 0.125269 (20 samples)
	minimum = 0.0763365 (20 samples)
	maximum = 0.284667 (20 samples)
Injected packet size average = 1.00001 (20 samples)
Accepted packet size average = 1.00001 (20 samples)
Hops average = 1 (20 samples)
----------------------------END-of-Interconnect-DETAILS-------------------------


gpgpu_simulation_time = 0 days, 0 hrs, 2 min, 42 sec (162 sec)
gpgpu_simulation_rate = 189900 (inst/sec)
gpgpu_simulation_rate = 3338 (cycle/sec)
gpgpu_silicon_slowdown = 209706x
Kernel Executed 10 times
Result stored in result.txt
GPGPU-Sim: *** exit detected ***
