

        *** GPGPU-Sim Simulator Version 4.0.0  [build gpgpu-sim_git-commit-90ec3399763d7c8512cfe7dc193473086c38ca38_modified_0.0] ***


GPGPU-Sim PTX: simulation mode 0 (can change with PTX_SIM_MODE_FUNC environment variable:
               1=functional simulation only, 0=detailed performance simulator)
GPGPU-Sim PTX: overriding embedded ptx with ptx file (PTX_SIM_USE_PTX_FILE is set)
GPGPU-Sim: Configuration options:

-save_embedded_ptx                      0 # saves ptx files embedded in binary as <n>.ptx
-keep                                   0 # keep intermediate files created by GPGPU-Sim when interfacing with external programs
-gpgpu_ptx_save_converted_ptxplus                    0 # Saved converted ptxplus to a file
-gpgpu_occupancy_sm_number                   20 # The SM number to pass to ptxas when getting register usage for computing GPU occupancy. This parameter is required in the config.
-ptx_opcode_latency_int      4,13,4,5,145,32 # Opcode latencies for integers <ADD,MAX,MUL,MAD,DIV,SHFL>Default 1,1,19,25,145,32
-ptx_opcode_latency_fp          4,13,4,5,39 # Opcode latencies for single precision floating points <ADD,MAX,MUL,MAD,DIV>Default 1,1,1,1,30
-ptx_opcode_latency_dp         8,19,8,8,330 # Opcode latencies for double precision floating points <ADD,MAX,MUL,MAD,DIV>Default 8,8,8,8,335
-ptx_opcode_latency_sfu                    8 # Opcode latencies for SFU instructionsDefault 8
-ptx_opcode_latency_tesnor                   64 # Opcode latencies for Tensor instructionsDefault 64
-ptx_opcode_initiation_int          1,2,2,1,8,4 # Opcode initiation intervals for integers <ADD,MAX,MUL,MAD,DIV,SHFL>Default 1,1,4,4,32,4
-ptx_opcode_initiation_fp            1,2,1,1,4 # Opcode initiation intervals for single precision floating points <ADD,MAX,MUL,MAD,DIV>Default 1,1,1,1,5
-ptx_opcode_initiation_dp         8,16,8,8,130 # Opcode initiation intervals for double precision floating points <ADD,MAX,MUL,MAD,DIV>Default 8,8,8,8,130
-ptx_opcode_initiation_sfu                    8 # Opcode initiation intervals for sfu instructionsDefault 8
-ptx_opcode_initiation_tensor                   64 # Opcode initiation intervals for tensor instructionsDefault 64
-cdp_latency         7200,8000,100,12000,1600 # CDP API latency <cudaStreamCreateWithFlags, cudaGetParameterBufferV2_init_perWarp, cudaGetParameterBufferV2_perKernel, cudaLaunchDeviceV2_init_perWarp, cudaLaunchDevicV2_perKernel>Default 7200,8000,100,12000,1600
-network_mode                           1 # Interconnection network mode
-inter_config_file   config_fermi_islip.icnt # Interconnection network config file
-icnt_in_buffer_limit                   64 # in_buffer_limit
-icnt_out_buffer_limit                   64 # out_buffer_limit
-icnt_subnets                           2 # subnets
-icnt_arbiter_algo                      1 # arbiter_algo
-icnt_verbose                           0 # inct_verbose
-icnt_grant_cycles                      1 # grant_cycles
-gpgpu_ptx_use_cuobjdump                    1 # Use cuobjdump to extract ptx and sass from binaries
-gpgpu_experimental_lib_support                    0 # Try to extract code from cuda libraries [Broken because of unknown cudaGetExportTable]
-checkpoint_option                      0 #  checkpointing flag (0 = no checkpoint)
-checkpoint_kernel                      1 #  checkpointing during execution of which kernel (1- 1st kernel)
-checkpoint_CTA                         0 #  checkpointing after # of CTA (< less than total CTA)
-resume_option                          0 #  resume flag (0 = no resume)
-resume_kernel                          0 #  Resume from which kernel (1= 1st kernel)
-resume_CTA                             0 #  resume from which CTA 
-checkpoint_CTA_t                       0 #  resume from which CTA 
-checkpoint_insn_Y                      0 #  resume from which CTA 
-gpgpu_ptx_convert_to_ptxplus                    0 # Convert SASS (native ISA) to ptxplus and run ptxplus
-gpgpu_ptx_force_max_capability                   20 # Force maximum compute capability
-gpgpu_ptx_inst_debug_to_file                    0 # Dump executed instructions' debug information to file
-gpgpu_ptx_inst_debug_file       inst_debug.txt # Executed instructions' debug output file
-gpgpu_ptx_inst_debug_thread_uid                    1 # Thread UID for executed instructions' debug output
-gpgpu_simd_model                       1 # 1 = post-dominator
-gpgpu_shader_core_pipeline              1536:32 # shader core pipeline config, i.e., {<nthread>:<warpsize>}
-gpgpu_tex_cache:l1  N:4:128:24,L:R:m:N:L,T:128:4,128:2 # per-shader L1 texture cache  (READ-ONLY) config  {<nsets>:<bsize>:<assoc>,<rep>:<wr>:<alloc>:<wr_alloc>,<mshr>:<N>:<merge>,<mq>:<rf>}
-gpgpu_const_cache:l1 N:64:64:2,L:R:f:N:L,S:2:32,4 # per-shader L1 constant memory cache  (READ-ONLY) config  {<nsets>:<bsize>:<assoc>,<rep>:<wr>:<alloc>:<wr_alloc>,<mshr>:<N>:<merge>,<mq>} 
-gpgpu_cache:il1     N:4:128:4,L:R:f:N:L,S:2:32,4 # shader L1 instruction cache config  {<nsets>:<bsize>:<assoc>,<rep>:<wr>:<alloc>:<wr_alloc>,<mshr>:<N>:<merge>,<mq>} 
-gpgpu_cache:dl1     N:32:128:4,L:L:m:N:H,S:64:8,8 # per-shader L1 data cache config  {<nsets>:<bsize>:<assoc>,<rep>:<wr>:<alloc>:<wr_alloc>,<mshr>:<N>:<merge>,<mq> | none}
-gpgpu_l1_banks                         1 # The number of L1 cache banks
-gpgpu_l1_banks_byte_interleaving                   32 # l1 banks byte interleaving granularity
-gpgpu_l1_banks_hashing_function                    0 # l1 banks hashing function
-gpgpu_l1_latency                      35 # L1 Hit Latency
-gpgpu_smem_latency                    26 # smem Latency
-gpgpu_cache:dl1PrefL1                 none # per-shader L1 data cache config  {<nsets>:<bsize>:<assoc>,<rep>:<wr>:<alloc>:<wr_alloc>,<mshr>:<N>:<merge>,<mq> | none}
-gpgpu_cache:dl1PrefShared                 none # per-shader L1 data cache config  {<nsets>:<bsize>:<assoc>,<rep>:<wr>:<alloc>:<wr_alloc>,<mshr>:<N>:<merge>,<mq> | none}
-gpgpu_gmem_skip_L1D                    0 # global memory access skip L1D cache (implements -Xptxas -dlcm=cg, default=no skip)
-gpgpu_perfect_mem                      0 # enable perfect memory mode (no cache miss)
-n_regfile_gating_group                    4 # group of lanes that should be read/written together)
-gpgpu_clock_gated_reg_file                    0 # enable clock gated reg file for power calculations
-gpgpu_clock_gated_lanes                    0 # enable clock gated lanes for power calculations
-gpgpu_shader_registers                32768 # Number of registers per shader core. Limits number of concurrent CTAs. (default 8192)
-gpgpu_registers_per_block                 8192 # Maximum number of registers per CTA. (default 8192)
-gpgpu_ignore_resources_limitation                    0 # gpgpu_ignore_resources_limitation (default 0)
-gpgpu_shader_cta                       8 # Maximum number of concurrent CTAs in shader (default 8)
-gpgpu_num_cta_barriers                   16 # Maximum number of named barriers per CTA (default 16)
-gpgpu_n_clusters                      15 # number of processing clusters
-gpgpu_n_cores_per_cluster                    1 # number of simd cores per cluster
-gpgpu_n_cluster_ejection_buffer_size                   32 # number of packets in ejection buffer
-gpgpu_n_ldst_response_buffer_size                    2 # number of response packets in ld/st unit ejection buffer
-gpgpu_shmem_per_block                49152 # Size of shared memory per thread block or CTA (default 48kB)
-gpgpu_shmem_size                   49152 # Size of shared memory per shader core (default 16kB)
-gpgpu_adaptive_cache_config                    0 # adaptive_cache_config
-gpgpu_shmem_sizeDefault                49152 # Size of shared memory per shader core (default 16kB)
-gpgpu_shmem_size_PrefL1                16384 # Size of shared memory per shader core (default 16kB)
-gpgpu_shmem_size_PrefShared                16384 # Size of shared memory per shader core (default 16kB)
-gpgpu_shmem_num_banks                   32 # Number of banks in the shared memory in each shader core (default 16)
-gpgpu_shmem_limited_broadcast                    0 # Limit shared memory to do one broadcast per cycle (default on)
-gpgpu_shmem_warp_parts                    1 # Number of portions a warp is divided into for shared memory bank conflict check 
-gpgpu_mem_unit_ports                    1 # The number of memory transactions allowed per core cycle
-gpgpu_shmem_warp_parts                    1 # Number of portions a warp is divided into for shared memory bank conflict check 
-gpgpu_warpdistro_shader                   -1 # Specify which shader core to collect the warp size distribution from
-gpgpu_warp_issue_shader                    0 # Specify which shader core to collect the warp issue distribution from
-gpgpu_local_mem_map                    1 # Mapping from local memory space address to simulated GPU physical address space (default = enabled)
-gpgpu_num_reg_banks                   16 # Number of register banks (default = 8)
-gpgpu_reg_bank_use_warp_id                    0 # Use warp ID in mapping registers to banks (default = off)
-gpgpu_sub_core_model                    0 # Sub Core Volta/Pascal model (default = off)
-gpgpu_enable_specialized_operand_collector                    1 # enable_specialized_operand_collector
-gpgpu_operand_collector_num_units_sp                    6 # number of collector units (default = 4)
-gpgpu_operand_collector_num_units_dp                    0 # number of collector units (default = 0)
-gpgpu_operand_collector_num_units_sfu                    8 # number of collector units (default = 4)
-gpgpu_operand_collector_num_units_int                    0 # number of collector units (default = 0)
-gpgpu_operand_collector_num_units_tensor_core                    4 # number of collector units (default = 4)
-gpgpu_operand_collector_num_units_mem                    2 # number of collector units (default = 2)
-gpgpu_operand_collector_num_units_gen                    0 # number of collector units (default = 0)
-gpgpu_operand_collector_num_in_ports_sp                    2 # number of collector unit in ports (default = 1)
-gpgpu_operand_collector_num_in_ports_dp                    0 # number of collector unit in ports (default = 0)
-gpgpu_operand_collector_num_in_ports_sfu                    1 # number of collector unit in ports (default = 1)
-gpgpu_operand_collector_num_in_ports_int                    0 # number of collector unit in ports (default = 0)
-gpgpu_operand_collector_num_in_ports_tensor_core                    1 # number of collector unit in ports (default = 1)
-gpgpu_operand_collector_num_in_ports_mem                    1 # number of collector unit in ports (default = 1)
-gpgpu_operand_collector_num_in_ports_gen                    0 # number of collector unit in ports (default = 0)
-gpgpu_operand_collector_num_out_ports_sp                    2 # number of collector unit in ports (default = 1)
-gpgpu_operand_collector_num_out_ports_dp                    0 # number of collector unit in ports (default = 0)
-gpgpu_operand_collector_num_out_ports_sfu                    1 # number of collector unit in ports (default = 1)
-gpgpu_operand_collector_num_out_ports_int                    0 # number of collector unit in ports (default = 0)
-gpgpu_operand_collector_num_out_ports_tensor_core                    1 # number of collector unit in ports (default = 1)
-gpgpu_operand_collector_num_out_ports_mem                    1 # number of collector unit in ports (default = 1)
-gpgpu_operand_collector_num_out_ports_gen                    0 # number of collector unit in ports (default = 0)
-gpgpu_coalesce_arch                   20 # Coalescing arch (GT200 = 13, Fermi = 20)
-gpgpu_num_sched_per_core                    2 # Number of warp schedulers per core
-gpgpu_max_insn_issue_per_warp                    1 # Max number of instructions that can be issued per warp in one cycle by scheduler (either 1 or 2)
-gpgpu_dual_issue_diff_exec_units                    1 # should dual issue use two different execution unit resources (Default = 1)
-gpgpu_simt_core_sim_order                    1 # Select the simulation order of cores in a cluster (0=Fix, 1=Round-Robin)
-gpgpu_pipeline_widths 2,0,0,1,1,2,0,0,1,1,2 # Pipeline widths ID_OC_SP,ID_OC_DP,ID_OC_INT,ID_OC_SFU,ID_OC_MEM,OC_EX_SP,OC_EX_DP,OC_EX_INT,OC_EX_SFU,OC_EX_MEM,EX_WB,ID_OC_TENSOR_CORE,OC_EX_TENSOR_CORE
-gpgpu_tensor_core_avail                    0 # Tensor Core Available (default=0)
-gpgpu_num_sp_units                     2 # Number of SP units (default=1)
-gpgpu_num_dp_units                     0 # Number of DP units (default=0)
-gpgpu_num_int_units                    0 # Number of INT units (default=0)
-gpgpu_num_sfu_units                    1 # Number of SF units (default=1)
-gpgpu_num_tensor_core_units                    0 # Number of tensor_core units (default=1)
-gpgpu_num_mem_units                    1 # Number if ldst units (default=1) WARNING: not hooked up to anything
-gpgpu_scheduler                      gto # Scheduler configuration: < lrr | gto | two_level_active > If two_level_active:<num_active_warps>:<inner_prioritization>:<outer_prioritization>For complete list of prioritization values see shader.h enum scheduler_prioritization_typeDefault: gto
-gpgpu_concurrent_kernel_sm                    0 # Support concurrent kernels on a SM (default = disabled)
-gpgpu_perfect_inst_const_cache                    0 # perfect inst and const cache mode, so all inst and const hits in the cache(default = disabled)
-gpgpu_inst_fetch_throughput                    1 # the number of fetched intruction per warp each cycle
-gpgpu_reg_file_port_throughput                    1 # the number ports of the register file
-specialized_unit_1         0,4,4,4,4,BRA # specialized unit config {<enabled>,<num_units>:<latency>:<initiation>,<ID_OC_SPEC>:<OC_EX_SPEC>,<NAME>}
-specialized_unit_2         0,4,4,4,4,BRA # specialized unit config {<enabled>,<num_units>:<latency>:<initiation>,<ID_OC_SPEC>:<OC_EX_SPEC>,<NAME>}
-specialized_unit_3         0,4,4,4,4,BRA # specialized unit config {<enabled>,<num_units>:<latency>:<initiation>,<ID_OC_SPEC>:<OC_EX_SPEC>,<NAME>}
-specialized_unit_4         0,4,4,4,4,BRA # specialized unit config {<enabled>,<num_units>:<latency>:<initiation>,<ID_OC_SPEC>:<OC_EX_SPEC>,<NAME>}
-specialized_unit_5         0,4,4,4,4,BRA # specialized unit config {<enabled>,<num_units>:<latency>:<initiation>,<ID_OC_SPEC>:<OC_EX_SPEC>,<NAME>}
-specialized_unit_6         0,4,4,4,4,BRA # specialized unit config {<enabled>,<num_units>:<latency>:<initiation>,<ID_OC_SPEC>:<OC_EX_SPEC>,<NAME>}
-specialized_unit_7         0,4,4,4,4,BRA # specialized unit config {<enabled>,<num_units>:<latency>:<initiation>,<ID_OC_SPEC>:<OC_EX_SPEC>,<NAME>}
-specialized_unit_8         0,4,4,4,4,BRA # specialized unit config {<enabled>,<num_units>:<latency>:<initiation>,<ID_OC_SPEC>:<OC_EX_SPEC>,<NAME>}
-gpgpu_perf_sim_memcpy                    1 # Fill the L2 cache on memcpy
-gpgpu_simple_dram_model                    0 # simple_dram_model with fixed latency and BW
-gpgpu_dram_scheduler                    1 # 0 = fifo, 1 = FR-FCFS (defaul)
-gpgpu_dram_partition_queues          64:64:64:64 # i2$:$2d:d2$:$2i
-l2_ideal                               0 # Use a ideal L2 cache that always hit
-gpgpu_cache:dl2     S:64:128:8,L:B:m:L:L,A:256:4,4:0,32 # unified banked L2 data cache config  {<nsets>:<bsize>:<assoc>,<rep>:<wr>:<alloc>:<wr_alloc>,<mshr>:<N>:<merge>,<mq>}
-gpgpu_cache:dl2_texture_only                    0 # L2 cache used for texture only
-gpgpu_n_mem                            6 # number of memory modules (e.g. memory controllers) in gpu
-gpgpu_n_sub_partition_per_mchannel                    2 # number of memory subpartition in each memory module
-gpgpu_n_mem_per_ctrlr                    2 # number of memory chips per memory controller
-gpgpu_memlatency_stat                   14 # track and display latency statistics 0x2 enables MC, 0x4 enables queue logs
-gpgpu_frfcfs_dram_sched_queue_size                   64 # 0 = unlimited (default); # entries per chip
-gpgpu_dram_return_queue_size                  116 # 0 = unlimited (default); # entries per chip
-gpgpu_dram_buswidth                    4 # default = 4 bytes (8 bytes per cycle at DDR)
-gpgpu_dram_burst_length                    8 # Burst length of each DRAM request (default = 4 data bus cycle)
-dram_data_command_freq_ratio                    4 # Frequency ratio between DRAM data bus and command bus (default = 2 times, i.e. DDR)
-gpgpu_dram_timing_opt nbk=16:CCD=2:RRD=6:RCD=12:RAS=28:RP=12:RC=40: CL=12:WL=4:CDLR=5:WR=12:nbkgrp=4:CCDL=3:RTPL=2 # DRAM timing parameters = {nbk:tCCD:tRRD:tRCD:tRAS:tRP:tRC:CL:WL:tCDLR:tWR:nbkgrp:tCCDL:tRTPL}
-gpgpu_l2_rop_latency                  120 # ROP queue latency (default 85)
-dram_latency                         100 # DRAM latency (default 30)
-dram_dual_bus_interface                    0 # dual_bus_interface (default = 0) 
-dram_bnk_indexing_policy                    0 # dram_bnk_indexing_policy (0 = normal indexing, 1 = Xoring with the higher bits) (Default = 0)
-dram_bnkgrp_indexing_policy                    1 # dram_bnkgrp_indexing_policy (0 = take higher bits, 1 = take lower bits) (Default = 0)
-dram_seperate_write_queue_enable                    0 # Seperate_Write_Queue_Enable
-dram_write_queue_size             32:28:16 # Write_Queue_Size
-dram_elimnate_rw_turnaround                    0 # elimnate_rw_turnaround i.e set tWTR and tRTW = 0
-icnt_flit_size                        40 # icnt_flit_size
-gpgpu_mem_addr_mapping dramid@8;00000000.00000000.00000000.00000000.0000RRRR.RRRRRRRR.BBBCCCCB.CCSSSSSS # mapping memory address to dram model {dramid@<start bit>;<memory address map>}
-gpgpu_mem_addr_test                    0 # run sweep test to check address mapping for aliased address
-gpgpu_mem_address_mask                    1 # 0 = old addressing mask, 1 = new addressing mask, 2 = new add. mask + flipped bank sel and chip sel bits
-gpgpu_memory_partition_indexing                    0 # 0 = no indexing, 1 = bitwise xoring, 2 = IPoly, 3 = custom indexing
-gpuwattch_xml_file  gpuwattch_gtx480.xml # GPUWattch XML file
-power_simulation_enabled                    1 # Turn on power simulator (1=On, 0=Off)
-power_per_cycle_dump                    0 # Dump detailed power output each cycle
-power_trace_enabled                    0 # produce a file for the power trace (1=On, 0=Off)
-power_trace_zlevel                     6 # Compression level of the power trace output log (0=no comp, 9=highest)
-steady_power_levels_enabled                    0 # produce a file for the steady power levels (1=On, 0=Off)
-steady_state_definition                  8:4 # allowed deviation:number of samples
-gpgpu_max_cycle                        0 # terminates gpu simulation early (0 = no limit)
-gpgpu_max_insn                         0 # terminates gpu simulation early (0 = no limit)
-gpgpu_max_cta                          0 # terminates gpu simulation early (0 = no limit)
-gpgpu_max_completed_cta                    0 # terminates gpu simulation early (0 = no limit)
-gpgpu_runtime_stat                   500 # display runtime statistics such as dram utilization {<freq>:<flag>}
-liveness_message_freq                    1 # Minimum number of seconds between simulation liveness messages (0 = always print)
-gpgpu_compute_capability_major                    2 # Major compute capability version number
-gpgpu_compute_capability_minor                    0 # Minor compute capability version number
-gpgpu_flush_l1_cache                    1 # Flush L1 cache at the end of each kernel call
-gpgpu_flush_l2_cache                    0 # Flush L2 cache at the end of each kernel call
-gpgpu_deadlock_detect                    1 # Stop the simulation at deadlock (1=on (default), 0=off)
-gpgpu_ptx_instruction_classification                    0 # if enabled will classify ptx instruction types per kernel (Max 255 kernels now)
-gpgpu_ptx_sim_mode                     0 # Select between Performance (default) or Functional simulation (1)
-gpgpu_clock_domains 700.0:700.0:700.0:924.0 # Clock Domain Frequencies in MhZ {<Core Clock>:<ICNT Clock>:<L2 Clock>:<DRAM Clock>}
-gpgpu_max_concurrent_kernel                    8 # maximum kernels that can run concurrently on GPU
-gpgpu_cflog_interval                    0 # Interval between each snapshot in control flow logger
-visualizer_enabled                     0 # Turn on visualizer output (1=On, 0=Off)
-visualizer_outputfile                 NULL # Specifies the output log file for visualizer
-visualizer_zlevel                      6 # Compression level of the visualizer output log (0=no comp, 9=highest)
-gpgpu_stack_size_limit                 1024 # GPU thread stack size
-gpgpu_heap_size_limit              8388608 # GPU malloc heap size 
-gpgpu_runtime_sync_depth_limit                    2 # GPU device runtime synchronize depth
-gpgpu_runtime_pending_launch_count_limit                 2048 # GPU device runtime pending launch count
-trace_enabled                          0 # Turn on traces
-trace_components                    none # comma seperated list of traces to enable. Complete list found in trace_streams.tup. Default none
-trace_sampling_core                    0 # The core which is printed using CORE_DPRINTF. Default 0
-trace_sampling_memory_partition                   -1 # The memory partition which is printed using MEMPART_DPRINTF. Default -1 (i.e. all)
-enable_ptx_file_line_stats                    1 # Turn on PTX source line statistic profiling. (1 = On)
-ptx_line_stats_filename gpgpu_inst_stats.txt # Output file for PTX source line statistics.
-gpgpu_kernel_launch_latency                    0 # Kernel launch latency in cycles. Default: 0
-gpgpu_cdp_enabled                      0 # Turn on CDP
-gpgpu_TB_launch_latency                    0 # thread block launch latency in cycles. Default: 0
DRAM Timing Options:
nbk                                    16 # number of banks
CCD                                     2 # column to column delay
RRD                                     6 # minimal delay between activation of rows in different banks
RCD                                    12 # row to column delay
RAS                                    28 # time needed to activate row
RP                                     12 # time needed to precharge (deactivate) row
RC                                     40 # row cycle time
CDLR                                    5 # switching from write to read (changes tWTR)
WR                                     12 # last data-in to row precharge
CL                                     12 # CAS latency
WL                                      4 # Write latency
nbkgrp                                  4 # number of bank groups
CCDL                                    3 # column to column delay between accesses to different bank groups
RTPL                                    2 # read to precharge delay between accesses to different bank groups
Total number of memory sub partition = 12
addr_dec_mask[CHIP]  = 0000000000000000 	high:64 low:0
addr_dec_mask[BK]    = 000000000000e100 	high:16 low:8
addr_dec_mask[ROW]   = 000000000fff0000 	high:28 low:16
addr_dec_mask[COL]   = 0000000000001eff 	high:13 low:0
addr_dec_mask[BURST] = 000000000000003f 	high:6 low:0
sub_partition_id_mask = 0000000000000100
GPGPU-Sim uArch: clock freqs: 700000000.000000:700000000.000000:700000000.000000:924000000.000000
GPGPU-Sim uArch: clock periods: 0.00000000142857142857:0.00000000142857142857:0.00000000142857142857:0.00000000108225108225
*** Initializing Memory Statistics ***
GPGPU-Sim uArch: interconnect node map (shaderID+MemID to icntID)
GPGPU-Sim uArch: Memory nodes ID start from index: 15
GPGPU-Sim uArch:    0   1   2   3   4
GPGPU-Sim uArch:    5   6   7   8   9
GPGPU-Sim uArch:   10  11  12  13  14
GPGPU-Sim uArch:   15  16  17  18  19
GPGPU-Sim uArch:   20  21  22  23  24
GPGPU-Sim uArch:   25  26
GPGPU-Sim uArch: interconnect node reverse map (icntID to shaderID+MemID)
GPGPU-Sim uArch: Memory nodes start from ID: 15
GPGPU-Sim uArch:    0   1   2   3   4
GPGPU-Sim uArch:    5   6   7   8   9
GPGPU-Sim uArch:   10  11  12  13  14
GPGPU-Sim uArch:   15  16  17  18  19
GPGPU-Sim uArch:   20  21  22  23  24
GPGPU-Sim uArch:   25  26
ebe5d78a7e7735a4d24d00f8ee6b8b64  /home/minigrim0/Documents/Lab_2/power_sim/lud.gpu
Extracting PTX file and ptxas options    1: lud.1.sm_30.ptx -arch=sm_30
Extracting PTX file and ptxas options    2: lud.2.sm_30.ptx -arch=sm_30
GPGPU-Sim uArch: performance model initialization complete.
self exe links to: /home/minigrim0/Documents/Lab_2/power_sim/lud.gpu
self exe links to: /home/minigrim0/Documents/Lab_2/power_sim/lud.gpu
10.0
GPGPU-Sim PTX: __cudaRegisterFatBinary, fat_cubin_handle = 1, filename=default
self exe links to: /home/minigrim0/Documents/Lab_2/power_sim/lud.gpu
Running md5sum using "md5sum /home/minigrim0/Documents/Lab_2/power_sim/lud.gpu "
self exe links to: /home/minigrim0/Documents/Lab_2/power_sim/lud.gpu
Extracting specific PTX file named lud.1.sm_30.ptx 
Extracting specific PTX file named lud.2.sm_30.ptx 
self exe links to: /home/minigrim0/Documents/Lab_2/power_sim/lud.gpu
self exe links to: /home/minigrim0/Documents/Lab_2/power_sim/lud.gpu
10.0
GPGPU-Sim PTX: __cudaRegisterFatBinary, fat_cubin_handle = 2, filename=default
GPGPU-Sim PTX: __cudaRegisterFunction _Z12lud_internalPfii : hostFun 0x0x56215422baec, fat_cubin_handle = 2
GPGPU-Sim PTX: Parsing lud.1.sm_30.ptx
GPGPU-Sim PTX: finished parsing EMBEDDED .ptx file lud.1.sm_30.ptx
GPGPU-Sim PTX: Parsing lud.2.sm_30.ptx
GPGPU-Sim PTX: allocating shared region for "_ZZ12lud_diagonalPfiiE6shadow" from 0x0 to 0x400 (shared memory space)
GPGPU-Sim PTX: instruction assembly for function '_Z12lud_diagonalPfii'...   done.
GPGPU-Sim PTX: allocating shared region for "_ZZ13lud_perimeterPfiiE3dia" from 0x0 to 0x400 (shared memory space)
GPGPU-Sim PTX: allocating shared region for "_ZZ13lud_perimeterPfiiE8peri_row" from 0x400 to 0x800 (shared memory space)
GPGPU-Sim PTX: allocating shared region for "_ZZ13lud_perimeterPfiiE8peri_col" from 0x800 to 0xc00 (shared memory space)
GPGPU-Sim PTX: instruction assembly for function '_Z13lud_perimeterPfii'...   done.
GPGPU-Sim PTX: allocating shared region for "_ZZ12lud_internalPfiiE8peri_row" from 0x0 to 0x400 (shared memory space)
GPGPU-Sim PTX: allocating shared region for "_ZZ12lud_internalPfiiE8peri_col" from 0x400 to 0x800 (shared memory space)
GPGPU-Sim PTX: instruction assembly for function '_Z12lud_internalPfii'...   done.
GPGPU-Sim PTX: finished parsing EMBEDDED .ptx file lud.2.sm_30.ptx
GPGPU-Sim PTX: loading globals with explicit initializers... 
GPGPU-Sim PTX: finished loading globals (0 bytes total).
GPGPU-Sim PTX: loading constants with explicit initializers...  done.
GPGPU-Sim PTX: Loading PTXInfo from lud.1.sm_30.ptx
GPGPU-Sim PTX: Loading PTXInfo from lud.2.sm_30.ptx
GPGPU-Sim PTX: Kernel '_Z12lud_internalPfii' : regs=22, lmem=0, smem=2048, cmem=336
GPGPU-Sim PTX: Kernel '_Z13lud_perimeterPfii' : regs=63, lmem=0, smem=3072, cmem=352
GPGPU-Sim PTX: Kernel '_Z12lud_diagonalPfii' : regs=48, lmem=0, smem=1024, cmem=352
GPGPU-Sim PTX: __cudaRegisterFunction _Z13lud_perimeterPfii : hostFun 0x0x56215422b962, fat_cubin_handle = 2
GPGPU-Sim PTX: __cudaRegisterFunction _Z12lud_diagonalPfii : hostFun 0x0x56215422b7d8, fat_cubin_handle = 2
WG size of kernel = 16 X 16
Generate input matrix internally, size =512
Creating matrix internally size=512
Before LUD
GPGPU-Sim PTX: Setting up arguments for 8 bytes starting at 0x7fff43b2e238..
GPGPU-Sim PTX: Setting up arguments for 4 bytes starting at 0x7fff43b2e234..
GPGPU-Sim PTX: Setting up arguments for 4 bytes starting at 0x7fff43b2e230..

GPGPU-Sim PTX: cudaLaunch for 0x0x56215422b7d8 (mode=performance simulation) on stream 0
GPGPU-Sim PTX: finding reconvergence points for '_Z12lud_diagonalPfii'...
GPGPU-Sim PTX: Finding dominators for '_Z12lud_diagonalPfii'...
GPGPU-Sim PTX: Finding immediate dominators for '_Z12lud_diagonalPfii'...
GPGPU-Sim PTX: Finding postdominators for '_Z12lud_diagonalPfii'...
GPGPU-Sim PTX: Finding immediate postdominators for '_Z12lud_diagonalPfii'...
GPGPU-Sim PTX: pre-decoding instructions for '_Z12lud_diagonalPfii'...
GPGPU-Sim PTX: reconvergence points for _Z12lud_diagonalPfii...
GPGPU-Sim PTX:  1 (potential) branch divergence @  PC=0x2e0 (lud.2.sm_30.ptx:128) @%p2 bra BB0_6;
GPGPU-Sim PTX:    immediate post dominator      @  PC=0x3b0 (lud.2.sm_30.ptx:162) setp.gt.u32%p1, %r1, %r89;
GPGPU-Sim PTX:  2 (potential) branch divergence @  PC=0x318 (lud.2.sm_30.ptx:136) @%p3 bra BB0_5;
GPGPU-Sim PTX:    immediate post dominator      @  PC=0x380 (lud.2.sm_30.ptx:154) shl.b32 %r55, %r89, 6;
GPGPU-Sim PTX:  3 (potential) branch divergence @  PC=0x378 (lud.2.sm_30.ptx:151) @%p4 bra BB0_4;
GPGPU-Sim PTX:    immediate post dominator      @  PC=0x380 (lud.2.sm_30.ptx:154) shl.b32 %r55, %r89, 6;
GPGPU-Sim PTX:  4 (potential) branch divergence @  PC=0x3d8 (lud.2.sm_30.ptx:167) @!%p6 bra BB0_9;
GPGPU-Sim PTX:    immediate post dominator      @  PC=0x488 (lud.2.sm_30.ptx:195) bar.sync 0;
GPGPU-Sim PTX:  5 (potential) branch divergence @  PC=0x3e0 (lud.2.sm_30.ptx:168) bra.uni BB0_7;
GPGPU-Sim PTX:    immediate post dominator      @  PC=0x3e8 (lud.2.sm_30.ptx:171) shl.b32 %r88, %r1, 2;
GPGPU-Sim PTX:  6 (potential) branch divergence @  PC=0x480 (lud.2.sm_30.ptx:192) @%p7 bra BB0_8;
GPGPU-Sim PTX:    immediate post dominator      @  PC=0x488 (lud.2.sm_30.ptx:195) bar.sync 0;
GPGPU-Sim PTX:  7 (potential) branch divergence @  PC=0x4a0 (lud.2.sm_30.ptx:198) @%p8 bra BB0_1;
GPGPU-Sim PTX:    immediate post dominator      @  PC=0x4a8 (lud.2.sm_30.ptx:200) ld.param.u64 %rd55, [_Z12lud_diagonalPfii_param_0];
GPGPU-Sim PTX: ... end of reconvergence points for _Z12lud_diagonalPfii
GPGPU-Sim PTX: ... done pre-decoding instructions for '_Z12lud_diagonalPfii'.
GPGPU-Sim PTX: pushing kernel '_Z12lud_diagonalPfii' to stream 0, gridDim= (1,1,1) blockDim = (16,1,1) 
GPGPU-Sim uArch: Shader 0 bind to kernel 1 '_Z12lud_diagonalPfii'
GPGPU-Sim uArch: CTA/core = 8, limited by: cta_limit
Destroy streams for kernel 1: size 0
kernel_name = _Z12lud_diagonalPfii 
kernel_launch_uid = 1 
gpu_sim_cycle = 30010
gpu_sim_insn = 19880
gpu_ipc =       0.6624
gpu_tot_sim_cycle = 30010
gpu_tot_sim_insn = 19880
gpu_tot_ipc =       0.6624
gpu_tot_issued_cta = 1
gpu_occupancy = 2.0833% 
gpu_tot_occupancy = 2.0833% 
max_total_param_size = 0
gpu_stall_dramfull = 0
gpu_stall_icnt2sh    = 0
partiton_level_parallism =       0.0015
partiton_level_parallism_total  =       0.0015
partiton_level_parallism_util =       1.0000
partiton_level_parallism_util_total  =       1.0000
L2_BW  =       0.1075 GB/Sec
L2_BW_total  =       0.1075 GB/Sec
gpu_total_sim_rate=9940

========= Core cache stats =========
L1I_cache:
	L1I_total_cache_accesses = 1672
	L1I_total_cache_misses = 12
	L1I_total_cache_miss_rate = 0.0072
	L1I_total_cache_pending_hits = 0
	L1I_total_cache_reservation_fails = 0
L1D_cache:
	L1D_cache_core[0]: Access = 31, Miss = 16, Miss_rate = 0.516, Pending_hits = 0, Reservation_fails = 0
	L1D_cache_core[1]: Access = 0, Miss = 0, Miss_rate = -nan, Pending_hits = 0, Reservation_fails = 0
	L1D_cache_core[2]: Access = 0, Miss = 0, Miss_rate = -nan, Pending_hits = 0, Reservation_fails = 0
	L1D_cache_core[3]: Access = 0, Miss = 0, Miss_rate = -nan, Pending_hits = 0, Reservation_fails = 0
	L1D_cache_core[4]: Access = 0, Miss = 0, Miss_rate = -nan, Pending_hits = 0, Reservation_fails = 0
	L1D_cache_core[5]: Access = 0, Miss = 0, Miss_rate = -nan, Pending_hits = 0, Reservation_fails = 0
	L1D_cache_core[6]: Access = 0, Miss = 0, Miss_rate = -nan, Pending_hits = 0, Reservation_fails = 0
	L1D_cache_core[7]: Access = 0, Miss = 0, Miss_rate = -nan, Pending_hits = 0, Reservation_fails = 0
	L1D_cache_core[8]: Access = 0, Miss = 0, Miss_rate = -nan, Pending_hits = 0, Reservation_fails = 0
	L1D_cache_core[9]: Access = 0, Miss = 0, Miss_rate = -nan, Pending_hits = 0, Reservation_fails = 0
	L1D_cache_core[10]: Access = 0, Miss = 0, Miss_rate = -nan, Pending_hits = 0, Reservation_fails = 0
	L1D_cache_core[11]: Access = 0, Miss = 0, Miss_rate = -nan, Pending_hits = 0, Reservation_fails = 0
	L1D_cache_core[12]: Access = 0, Miss = 0, Miss_rate = -nan, Pending_hits = 0, Reservation_fails = 0
	L1D_cache_core[13]: Access = 0, Miss = 0, Miss_rate = -nan, Pending_hits = 0, Reservation_fails = 0
	L1D_cache_core[14]: Access = 0, Miss = 0, Miss_rate = -nan, Pending_hits = 0, Reservation_fails = 0
	L1D_total_cache_accesses = 31
	L1D_total_cache_misses = 16
	L1D_total_cache_miss_rate = 0.5161
	L1D_total_cache_pending_hits = 0
	L1D_total_cache_reservation_fails = 0
	L1D_cache_data_port_util = 0.000
	L1D_cache_fill_port_util = 0.001
L1C_cache:
	L1C_total_cache_accesses = 6
	L1C_total_cache_misses = 3
	L1C_total_cache_miss_rate = 0.5000
	L1C_total_cache_pending_hits = 0
	L1C_total_cache_reservation_fails = 0
L1T_cache:
	L1T_total_cache_accesses = 0
	L1T_total_cache_misses = 0
	L1T_total_cache_pending_hits = 0
	L1T_total_cache_reservation_fails = 0

Total_core_cache_stats:
	Total_core_cache_stats_breakdown[GLOBAL_ACC_R][HIT] = 0
	Total_core_cache_stats_breakdown[GLOBAL_ACC_R][HIT_RESERVED] = 0
	Total_core_cache_stats_breakdown[GLOBAL_ACC_R][MISS] = 16
	Total_core_cache_stats_breakdown[GLOBAL_ACC_R][RESERVATION_FAIL] = 0
	Total_core_cache_stats_breakdown[GLOBAL_ACC_R][SECTOR_MISS] = 0
	Total_core_cache_stats_breakdown[LOCAL_ACC_R][HIT] = 0
	Total_core_cache_stats_breakdown[LOCAL_ACC_R][HIT_RESERVED] = 0
	Total_core_cache_stats_breakdown[LOCAL_ACC_R][MISS] = 0
	Total_core_cache_stats_breakdown[LOCAL_ACC_R][RESERVATION_FAIL] = 0
	Total_core_cache_stats_breakdown[LOCAL_ACC_R][SECTOR_MISS] = 0
	Total_core_cache_stats_breakdown[CONST_ACC_R][HIT] = 3
	Total_core_cache_stats_breakdown[CONST_ACC_R][HIT_RESERVED] = 0
	Total_core_cache_stats_breakdown[CONST_ACC_R][MISS] = 3
	Total_core_cache_stats_breakdown[CONST_ACC_R][RESERVATION_FAIL] = 0
	Total_core_cache_stats_breakdown[CONST_ACC_R][SECTOR_MISS] = 0
	Total_core_cache_stats_breakdown[TEXTURE_ACC_R][HIT] = 0
	Total_core_cache_stats_breakdown[TEXTURE_ACC_R][HIT_RESERVED] = 0
	Total_core_cache_stats_breakdown[TEXTURE_ACC_R][MISS] = 0
	Total_core_cache_stats_breakdown[TEXTURE_ACC_R][RESERVATION_FAIL] = 0
	Total_core_cache_stats_breakdown[TEXTURE_ACC_R][SECTOR_MISS] = 0
	Total_core_cache_stats_breakdown[GLOBAL_ACC_W][HIT] = 15
	Total_core_cache_stats_breakdown[GLOBAL_ACC_W][HIT_RESERVED] = 0
	Total_core_cache_stats_breakdown[GLOBAL_ACC_W][MISS] = 0
	Total_core_cache_stats_breakdown[GLOBAL_ACC_W][RESERVATION_FAIL] = 0
	Total_core_cache_stats_breakdown[GLOBAL_ACC_W][SECTOR_MISS] = 0
	Total_core_cache_stats_breakdown[LOCAL_ACC_W][HIT] = 0
	Total_core_cache_stats_breakdown[LOCAL_ACC_W][HIT_RESERVED] = 0
	Total_core_cache_stats_breakdown[LOCAL_ACC_W][MISS] = 0
	Total_core_cache_stats_breakdown[LOCAL_ACC_W][RESERVATION_FAIL] = 0
	Total_core_cache_stats_breakdown[LOCAL_ACC_W][SECTOR_MISS] = 0
	Total_core_cache_stats_breakdown[L1_WRBK_ACC][HIT] = 0
	Total_core_cache_stats_breakdown[L1_WRBK_ACC][HIT_RESERVED] = 0
	Total_core_cache_stats_breakdown[L1_WRBK_ACC][MISS] = 0
	Total_core_cache_stats_breakdown[L1_WRBK_ACC][RESERVATION_FAIL] = 0
	Total_core_cache_stats_breakdown[L1_WRBK_ACC][SECTOR_MISS] = 0
	Total_core_cache_stats_breakdown[L2_WRBK_ACC][HIT] = 0
	Total_core_cache_stats_breakdown[L2_WRBK_ACC][HIT_RESERVED] = 0
	Total_core_cache_stats_breakdown[L2_WRBK_ACC][MISS] = 0
	Total_core_cache_stats_breakdown[L2_WRBK_ACC][RESERVATION_FAIL] = 0
	Total_core_cache_stats_breakdown[L2_WRBK_ACC][SECTOR_MISS] = 0
	Total_core_cache_stats_breakdown[INST_ACC_R][HIT] = 1660
	Total_core_cache_stats_breakdown[INST_ACC_R][HIT_RESERVED] = 0
	Total_core_cache_stats_breakdown[INST_ACC_R][MISS] = 12
	Total_core_cache_stats_breakdown[INST_ACC_R][RESERVATION_FAIL] = 0
	Total_core_cache_stats_breakdown[INST_ACC_R][SECTOR_MISS] = 0
	Total_core_cache_stats_breakdown[L1_WR_ALLOC_R][HIT] = 0
	Total_core_cache_stats_breakdown[L1_WR_ALLOC_R][HIT_RESERVED] = 0
	Total_core_cache_stats_breakdown[L1_WR_ALLOC_R][MISS] = 0
	Total_core_cache_stats_breakdown[L1_WR_ALLOC_R][RESERVATION_FAIL] = 0
	Total_core_cache_stats_breakdown[L1_WR_ALLOC_R][SECTOR_MISS] = 0
	Total_core_cache_stats_breakdown[L2_WR_ALLOC_R][HIT] = 0
	Total_core_cache_stats_breakdown[L2_WR_ALLOC_R][HIT_RESERVED] = 0
	Total_core_cache_stats_breakdown[L2_WR_ALLOC_R][MISS] = 0
	Total_core_cache_stats_breakdown[L2_WR_ALLOC_R][RESERVATION_FAIL] = 0
	Total_core_cache_stats_breakdown[L2_WR_ALLOC_R][SECTOR_MISS] = 0
	Total_core_cache_stats_breakdown[GLOBAL_ACC_R][TOTAL_ACCESS] = 16
	Total_core_cache_stats_breakdown[CONST_ACC_R][TOTAL_ACCESS] = 6
	Total_core_cache_stats_breakdown[GLOBAL_ACC_W][TOTAL_ACCESS] = 15
	Total_core_cache_stats_breakdown[INST_ACC_R][TOTAL_ACCESS] = 1672

Total_core_cache_fail_stats:
ctas_completed 1, Shader 0 warp_id issue ditsribution:
warp_id:
0, 
distro:
2949, 
gpgpu_n_tot_thrd_icount = 94368
gpgpu_n_tot_w_icount = 2949
gpgpu_n_stall_shd_mem = 504
gpgpu_n_mem_read_local = 0
gpgpu_n_mem_write_local = 0
gpgpu_n_mem_read_global = 16
gpgpu_n_mem_write_global = 15
gpgpu_n_mem_texture = 0
gpgpu_n_mem_const = 1
gpgpu_n_load_insn  = 256
gpgpu_n_store_insn = 240
gpgpu_n_shmem_insn = 4696
gpgpu_n_sstarr_insn = 0
gpgpu_n_tex_insn = 0
gpgpu_n_const_mem_insn = 0
gpgpu_n_param_mem_insn = 96
gpgpu_n_shmem_bkconflict = 0
gpgpu_n_cache_bkconflict = 0
gpgpu_n_intrawarp_mshr_merge = 0
gpgpu_n_cmem_portconflict = 0
gpgpu_stall_shd_mem[c_mem][resource_stall] = 0
gpgpu_stall_shd_mem[s_mem][bk_conf] = 504
gpgpu_stall_shd_mem[gl_mem][resource_stall] = 0
gpgpu_stall_shd_mem[gl_mem][coal_stall] = 0
gpgpu_stall_shd_mem[gl_mem][data_port_stall] = 0
gpu_reg_bank_conflict_stalls = 0
Warp Occupancy Distribution:
Stall:0	W0_Idle:35231	W0_Scoreboard:21838	W1:316	W2:296	W3:276	W4:256	W5:236	W6:216	W7:196	W8:176	W9:156	W10:136	W11:116	W12:96	W13:76	W14:56	W15:34	W16:311	W17:0	W18:0	W19:0	W20:0	W21:0	W22:0	W23:0	W24:0	W25:0	W26:0	W27:0	W28:0	W29:0	W30:0	W31:0	W32:0
single_issue_nums: WS0:2949	WS1:0	
dual_issue_nums: WS0:0	WS1:0	
traffic_breakdown_coretomem[CONST_ACC_R] = 8 {8:1,}
traffic_breakdown_coretomem[GLOBAL_ACC_R] = 128 {8:16,}
traffic_breakdown_coretomem[GLOBAL_ACC_W] = 1080 {72:15,}
traffic_breakdown_coretomem[INST_ACC_R] = 96 {8:12,}
traffic_breakdown_memtocore[CONST_ACC_R] = 80 {40:2,}
traffic_breakdown_memtocore[GLOBAL_ACC_R] = 2560 {40:64,}
traffic_breakdown_memtocore[GLOBAL_ACC_W] = 240 {8:30,}
traffic_breakdown_memtocore[INST_ACC_R] = 1920 {40:48,}
maxmflatency = 268 
max_icnt2mem_latency = 50 
maxmrqlatency = 21 
max_icnt2sh_latency = 7 
averagemflatency = 220 
avg_icnt2mem_latency = 17 
avg_mrq_latency = 4 
avg_icnt2sh_latency = 7 
mrq_lat_table:52 	31 	0 	21 	10 	0 	0 	0 	0 	0 	0 	0 	0 	0 	0 	0 	0 	0 	0 	0 	0 	0 	0 	0 	0 	0 	0 	0 	0 	0 	0 	0 	
dq_lat_table:0 	0 	0 	0 	0 	0 	0 	0 	0 	0 	0 	0 	0 	0 	0 	0 	0 	0 	0 	0 	0 	0 	0 	0 	0 	0 	0 	0 	0 	0 	0 	0 	
mf_lat_table:0 	0 	0 	0 	0 	0 	0 	86 	10 	0 	0 	0 	0 	0 	0 	0 	0 	0 	0 	0 	0 	0 	0 	0 	0 	0 	0 	0 	0 	0 	0 	0 	
icnt2mem_lat_table:0 	0 	12 	1 	0 	31 	0 	0 	0 	0 	0 	0 	0 	0 	0 	0 	0 	0 	0 	0 	0 	0 	0 	0 	
icnt2sh_lat_table:0 	0 	96 	0 	0 	0 	0 	0 	0 	0 	0 	0 	0 	0 	0 	0 	0 	0 	0 	0 	0 	0 	0 	0 	
mf_lat_pw_table:0 	0 	0 	0 	0 	0 	0 	12 	1 	0 	0 	0 	0 	0 	0 	0 	0 	0 	0 	0 	0 	0 	0 	0 	0 	0 	0 	0 	0 	0 	0 	0 	
maximum concurrent accesses to same row:
dram[0]:         6         0         0         0         0         0         0         0         0         0         0         0         0         0         0         0 
dram[1]:         0         0         0         0         0         0         0         0         0         0         0         0         0         0         0         0 
dram[2]:         0         0         0         0         0         0         0         0         0         0         0         0         0         0         0         0 
dram[3]:         0         0         0         0         0         0         0         0         0         0         0         0         0         0         0         0 
dram[4]:        20         0         0         0         0         0         0         0         0         0         0         0         0         0         0         0 
dram[5]:         0         0         0         0         0         0         0         0         0         0         0         0         0         0         0         0 
maximum service time to same row:
dram[0]:      1005         0         0         0         0         0         0         0         0         0         0         0         0         0         0         0 
dram[1]:      2432         0         0         0         0         0         0         0         0         0         0         0         0         0         0         0 
dram[2]:      4975         0         0         0         0         0         0         0         0         0         0         0         0         0         0         0 
dram[3]:      7163         0         0         0         0         0         0         0         0         0         0         0         0         0         0         0 
dram[4]:      7844         0         0         0         0         0         0         0         0         0         0         0         0         0         0         0 
dram[5]:     29484         0         0         0         0         0         0         0         0         0         0         0         0         0         0         0 
average row accesses per activate:
dram[0]:  8.500000      -nan      -nan      -nan      -nan      -nan      -nan      -nan      -nan      -nan      -nan      -nan      -nan      -nan      -nan      -nan 
dram[1]:  8.000000      -nan      -nan      -nan      -nan      -nan      -nan      -nan      -nan      -nan      -nan      -nan      -nan      -nan      -nan      -nan 
dram[2]:  8.000000       inf      -nan      -nan      -nan      -nan      -nan      -nan      -nan      -nan      -nan      -nan      -nan      -nan      -nan      -nan 
dram[3]:  8.000000      -nan      -nan      -nan      -nan      -nan      -nan      -nan      -nan      -nan      -nan      -nan      -nan      -nan      -nan      -nan 
dram[4]: 28.000000      -nan      -nan      -nan      -nan      -nan      -nan      -nan      -nan      -nan      -nan      -nan      -nan      -nan      -nan      -nan 
dram[5]:  8.000000      -nan      -nan      -nan      -nan      -nan      -nan      -nan      -nan      -nan      -nan      -nan      -nan      -nan      -nan      -nan 
average row locality = 114/9 = 12.666667
number of total memory accesses made:
dram[0]:         0         0         0         0         0         0         0         0         0         0         0         0         0         0         0         0 
dram[1]:         0         0         0         0         0         0         0         0         0         0         0         0         0         0         0         0 
dram[2]:         0         0         0         0         0         0         0         0         0         0         0         0         0         0         0         0 
dram[3]:         0         0         0         0         0         0         0         0         0         0         0         0         0         0         0         0 
dram[4]:         0         0         0         0         0         0         0         0         0         0         0         0         0         0         0         0 
dram[5]:         0         0         0         0         0         0         0         0         0         0         0         0         0         0         0         0 
total accesses: 0
min_bank_accesses = 0!
min_chip_accesses = 0!
number of total read accesses:
dram[0]:         0         0         0         0         0         0         0         0         0         0         0         0         0         0         0         0 
dram[1]:         0         0         0         0         0         0         0         0         0         0         0         0         0         0         0         0 
dram[2]:         0         0         0         0         0         0         0         0         0         0         0         0         0         0         0         0 
dram[3]:         0         0         0         0         0         0         0         0         0         0         0         0         0         0         0         0 
dram[4]:         0         0         0         0         0         0         0         0         0         0         0         0         0         0         0         0 
dram[5]:         0         0         0         0         0         0         0         0         0         0         0         0         0         0         0         0 
total dram reads = 0
min_bank_accesses = 0!
min_chip_accesses = 0!
number of total write accesses:
dram[0]:         0         0         0         0         0         0         0         0         0         0         0         0         0         0         0         0 
dram[1]:         0         0         0         0         0         0         0         0         0         0         0         0         0         0         0         0 
dram[2]:         0         0         0         0         0         0         0         0         0         0         0         0         0         0         0         0 
dram[3]:         0         0         0         0         0         0         0         0         0         0         0         0         0         0         0         0 
dram[4]:         0         0         0         0         0         0         0         0         0         0         0         0         0         0         0         0 
dram[5]:         0         0         0         0         0         0         0         0         0         0         0         0         0         0         0         0 
total dram writes = 0
min_bank_accesses = 0!
min_chip_accesses = 0!
average mf latency per bank:
dram[0]:     none      none      none      none      none      none      none      none      none      none      none      none      none      none      none      none  
dram[1]:     none      none      none      none      none      none      none      none      none      none      none      none      none      none      none      none  
dram[2]:     none      none      none      none      none      none      none      none      none      none      none      none      none      none      none      none  
dram[3]:     none      none      none      none      none      none      none      none      none      none      none      none      none      none      none      none  
dram[4]:     none      none      none      none      none      none      none      none      none      none      none      none      none      none      none      none  
dram[5]:     none      none      none      none      none      none      none      none      none      none      none      none      none      none      none      none  
maximum mf latency per bank:
dram[0]:        268         0         0         0         0         0         0         0         0         0         0         0         0         0         0         0
dram[1]:          0         0         0         0         0         0         0         0         0         0         0         0         0         0         0         0
dram[2]:          0       259         0         0         0         0         0         0         0         0         0         0         0         0         0         0
dram[3]:          0         0         0         0         0         0         0         0         0         0         0         0         0         0         0         0
dram[4]:        258         0         0         0         0         0         0         0         0         0         0         0         0         0         0         0
dram[5]:          0         0         0         0         0         0         0         0         0         0         0         0         0         0         0         0
Memory Partition 0: 
Cache L2_bank_000:
MSHR contents

Cache L2_bank_001:
MSHR contents

In Dram Latency Queue (total = 0): 
DRAM[0]: 16 bks, busW=4 BL=8 CL=12, tRRD=6 tCCD=2, tRCD=12 tRAS=28 tRP=12 tRC=40
n_cmd=39612 n_nop=39571 n_act=4 n_pre=3 n_ref_event=94701154270800 n_req=34 n_rd=34 n_rd_L2_A=0 n_write=0 n_wr_bk=0 bw_util=0.001717
n_activity=301 dram_eff=0.2259
bk0: 34a 39481i bk1: 0a 39609i bk2: 0a 39609i bk3: 0a 39609i bk4: 0a 39609i bk5: 0a 39611i bk6: 0a 39611i bk7: 0a 39612i bk8: 0a 39612i bk9: 0a 39612i bk10: 0a 39612i bk11: 0a 39613i bk12: 0a 39613i bk13: 0a 39615i bk14: 0a 39615i bk15: 0a 39615i 

------------------------------------------------------------------------

Row_Buffer_Locality = 0.882353
Row_Buffer_Locality_read = 0.882353
Row_Buffer_Locality_write = -nan
Bank_Level_Parallism = 1.000000
Bank_Level_Parallism_Col = 0.673050
Bank_Level_Parallism_Ready = 1.000000
write_to_read_ratio_blp_rw_average = 0.000000
GrpLevelPara = 0.000000 

BW Util details:
bwutil = 0.001717 
total_CMD = 39612 
util_bw = 68 
Wasted_Col = 73 
Wasted_Row = 36 
Idle = 39435 

BW Util Bottlenecks: 
RCDc_limit = 48 
RCDWRc_limit = 0 
WTRc_limit = 0 
RTWc_limit = 0 
CCDLc_limit = 25 
rwq = 0 
CCDLc_limit_alone = 25 
WTRc_limit_alone = 0 
RTWc_limit_alone = 0 

Commands details: 
total_CMD = 39612 
n_nop = 39571 
Read = 34 
Write = 0 
L2_Alloc = 0 
L2_WB = 0 
n_act = 4 
n_pre = 3 
n_ref = 94701154270800 
n_req = 34 
total_req = 34 

Dual Bus Interface Util: 
issued_total_row = 7 
issued_total_col = 34 
Row_Bus_Util =  0.000177 
CoL_Bus_Util = 0.000858 
Either_Row_CoL_Bus_Util = 0.001035 
Issued_on_Two_Bus_Simul_Util = 0.000000 
issued_two_Eff = 0.000000 
queue_avg = 0.006008 


dram_util_bins: 0 0 0 0 0 0 0 0 0 0
dram_eff_bins: 0 0 0 0 0 0 0 0 0 0
mrqq: max=3 avg=0.00600828
Memory Partition 1: 
Cache L2_bank_002:
MSHR contents

Cache L2_bank_003:
MSHR contents

In Dram Latency Queue (total = 0): 
DRAM[1]: 16 bks, busW=4 BL=8 CL=12, tRRD=6 tCCD=2, tRCD=12 tRAS=28 tRP=12 tRC=40
n_cmd=39612 n_nop=39603 n_act=1 n_pre=0 n_ref_event=4560869750798743682 n_req=8 n_rd=8 n_rd_L2_A=0 n_write=0 n_wr_bk=0 bw_util=0.0004039
n_activity=61 dram_eff=0.2623
bk0: 8a 39588i bk1: 0a 39612i bk2: 0a 39612i bk3: 0a 39612i bk4: 0a 39612i bk5: 0a 39612i bk6: 0a 39612i bk7: 0a 39612i bk8: 0a 39612i bk9: 0a 39612i bk10: 0a 39612i bk11: 0a 39612i bk12: 0a 39612i bk13: 0a 39612i bk14: 0a 39612i bk15: 0a 39612i 

------------------------------------------------------------------------

Row_Buffer_Locality = 0.875000
Row_Buffer_Locality_read = 0.875000
Row_Buffer_Locality_write = -nan
Bank_Level_Parallism = 1.000000
Bank_Level_Parallism_Col = 1.000000
Bank_Level_Parallism_Ready = 1.000000
write_to_read_ratio_blp_rw_average = 0.000000
GrpLevelPara = 1.000000 

BW Util details:
bwutil = 0.000404 
total_CMD = 39612 
util_bw = 16 
Wasted_Col = 18 
Wasted_Row = 0 
Idle = 39578 

BW Util Bottlenecks: 
RCDc_limit = 12 
RCDWRc_limit = 0 
WTRc_limit = 0 
RTWc_limit = 0 
CCDLc_limit = 6 
rwq = 0 
CCDLc_limit_alone = 6 
WTRc_limit_alone = 0 
RTWc_limit_alone = 0 

Commands details: 
total_CMD = 39612 
n_nop = 39603 
Read = 8 
Write = 0 
L2_Alloc = 0 
L2_WB = 0 
n_act = 1 
n_pre = 0 
n_ref = 4560869750798743682 
n_req = 8 
total_req = 8 

Dual Bus Interface Util: 
issued_total_row = 1 
issued_total_col = 8 
Row_Bus_Util =  0.000025 
CoL_Bus_Util = 0.000202 
Either_Row_CoL_Bus_Util = 0.000227 
Issued_on_Two_Bus_Simul_Util = 0.000000 
issued_two_Eff = 0.000000 
queue_avg = 0.001111 


dram_util_bins: 0 0 0 0 0 0 0 0 0 0
dram_eff_bins: 0 0 0 0 0 0 0 0 0 0
mrqq: max=3 avg=0.00111077
Memory Partition 2: 
Cache L2_bank_004:
MSHR contents

Cache L2_bank_005:
MSHR contents

In Dram Latency Queue (total = 0): 
DRAM[2]: 16 bks, busW=4 BL=8 CL=12, tRRD=6 tCCD=2, tRCD=12 tRAS=28 tRP=12 tRC=40
n_cmd=39612 n_nop=39582 n_act=2 n_pre=0 n_ref_event=0 n_req=28 n_rd=28 n_rd_L2_A=0 n_write=0 n_wr_bk=0 bw_util=0.001414
n_activity=185 dram_eff=0.3027
bk0: 8a 39588i bk1: 20a 39571i bk2: 0a 39611i bk3: 0a 39612i bk4: 0a 39612i bk5: 0a 39612i bk6: 0a 39612i bk7: 0a 39612i bk8: 0a 39612i bk9: 0a 39612i bk10: 0a 39612i bk11: 0a 39612i bk12: 0a 39612i bk13: 0a 39612i bk14: 0a 39612i bk15: 0a 39612i 

------------------------------------------------------------------------

Row_Buffer_Locality = 0.964286
Row_Buffer_Locality_read = 0.964286
Row_Buffer_Locality_write = -nan
Bank_Level_Parallism = 1.000000
Bank_Level_Parallism_Col = 1.000000
Bank_Level_Parallism_Ready = 1.000000
write_to_read_ratio_blp_rw_average = 0.000000
GrpLevelPara = 1.000000 

BW Util details:
bwutil = 0.001414 
total_CMD = 39612 
util_bw = 56 
Wasted_Col = 45 
Wasted_Row = 0 
Idle = 39511 

BW Util Bottlenecks: 
RCDc_limit = 24 
RCDWRc_limit = 0 
WTRc_limit = 0 
RTWc_limit = 0 
CCDLc_limit = 21 
rwq = 0 
CCDLc_limit_alone = 21 
WTRc_limit_alone = 0 
RTWc_limit_alone = 0 

Commands details: 
total_CMD = 39612 
n_nop = 39582 
Read = 28 
Write = 0 
L2_Alloc = 0 
L2_WB = 0 
n_act = 2 
n_pre = 0 
n_ref = 0 
n_req = 28 
total_req = 28 

Dual Bus Interface Util: 
issued_total_row = 2 
issued_total_col = 28 
Row_Bus_Util =  0.000050 
CoL_Bus_Util = 0.000707 
Either_Row_CoL_Bus_Util = 0.000757 
Issued_on_Two_Bus_Simul_Util = 0.000000 
issued_two_Eff = 0.000000 
queue_avg = 0.002600 


dram_util_bins: 0 0 0 0 0 0 0 0 0 0
dram_eff_bins: 0 0 0 0 0 0 0 0 0 0
mrqq: max=3 avg=0.00260022
Memory Partition 3: 
Cache L2_bank_006:
MSHR contents

Cache L2_bank_007:
MSHR contents

In Dram Latency Queue (total = 0): 
DRAM[3]: 16 bks, busW=4 BL=8 CL=12, tRRD=6 tCCD=2, tRCD=12 tRAS=28 tRP=12 tRC=40
n_cmd=39612 n_nop=39603 n_act=1 n_pre=0 n_ref_event=13984 n_req=8 n_rd=8 n_rd_L2_A=0 n_write=0 n_wr_bk=0 bw_util=0.0004039
n_activity=61 dram_eff=0.2623
bk0: 8a 39589i bk1: 0a 39612i bk2: 0a 39612i bk3: 0a 39612i bk4: 0a 39612i bk5: 0a 39612i bk6: 0a 39612i bk7: 0a 39612i bk8: 0a 39612i bk9: 0a 39612i bk10: 0a 39612i bk11: 0a 39612i bk12: 0a 39612i bk13: 0a 39612i bk14: 0a 39612i bk15: 0a 39612i 

------------------------------------------------------------------------

Row_Buffer_Locality = 0.875000
Row_Buffer_Locality_read = 0.875000
Row_Buffer_Locality_write = -nan
Bank_Level_Parallism = 1.000000
Bank_Level_Parallism_Col = 1.000000
Bank_Level_Parallism_Ready = 1.000000
write_to_read_ratio_blp_rw_average = 0.000000
GrpLevelPara = 1.000000 

BW Util details:
bwutil = 0.000404 
total_CMD = 39612 
util_bw = 16 
Wasted_Col = 18 
Wasted_Row = 0 
Idle = 39578 

BW Util Bottlenecks: 
RCDc_limit = 12 
RCDWRc_limit = 0 
WTRc_limit = 0 
RTWc_limit = 0 
CCDLc_limit = 6 
rwq = 0 
CCDLc_limit_alone = 6 
WTRc_limit_alone = 0 
RTWc_limit_alone = 0 

Commands details: 
total_CMD = 39612 
n_nop = 39603 
Read = 8 
Write = 0 
L2_Alloc = 0 
L2_WB = 0 
n_act = 1 
n_pre = 0 
n_ref = 13984 
n_req = 8 
total_req = 8 

Dual Bus Interface Util: 
issued_total_row = 1 
issued_total_col = 8 
Row_Bus_Util =  0.000025 
CoL_Bus_Util = 0.000202 
Either_Row_CoL_Bus_Util = 0.000227 
Issued_on_Two_Bus_Simul_Util = 0.000000 
issued_two_Eff = 0.000000 
queue_avg = 0.001111 


dram_util_bins: 0 0 0 0 0 0 0 0 0 0
dram_eff_bins: 0 0 0 0 0 0 0 0 0 0
mrqq: max=3 avg=0.00111077
Memory Partition 4: 
Cache L2_bank_008:
MSHR contents

Cache L2_bank_009:
MSHR contents

In Dram Latency Queue (total = 0): 
DRAM[4]: 16 bks, busW=4 BL=8 CL=12, tRRD=6 tCCD=2, tRCD=12 tRAS=28 tRP=12 tRC=40
n_cmd=39612 n_nop=39581 n_act=2 n_pre=1 n_ref_event=0 n_req=28 n_rd=28 n_rd_L2_A=0 n_write=0 n_wr_bk=0 bw_util=0.001414
n_activity=197 dram_eff=0.2843
bk0: 28a 39534i bk1: 0a 39611i bk2: 0a 39611i bk3: 0a 39611i bk4: 0a 39611i bk5: 0a 39612i bk6: 0a 39612i bk7: 0a 39612i bk8: 0a 39612i bk9: 0a 39612i bk10: 0a 39612i bk11: 0a 39612i bk12: 0a 39612i bk13: 0a 39613i bk14: 0a 39613i bk15: 0a 39613i 

------------------------------------------------------------------------

Row_Buffer_Locality = 0.964286
Row_Buffer_Locality_read = 0.964286
Row_Buffer_Locality_write = -nan
Bank_Level_Parallism = 1.000000
Bank_Level_Parallism_Col = 1.000000
Bank_Level_Parallism_Ready = 1.000000
write_to_read_ratio_blp_rw_average = 0.000000
GrpLevelPara = 1.000000 

BW Util details:
bwutil = 0.001414 
total_CMD = 39612 
util_bw = 56 
Wasted_Col = 45 
Wasted_Row = 12 
Idle = 39499 

BW Util Bottlenecks: 
RCDc_limit = 24 
RCDWRc_limit = 0 
WTRc_limit = 0 
RTWc_limit = 0 
CCDLc_limit = 21 
rwq = 0 
CCDLc_limit_alone = 21 
WTRc_limit_alone = 0 
RTWc_limit_alone = 0 

Commands details: 
total_CMD = 39612 
n_nop = 39581 
Read = 28 
Write = 0 
L2_Alloc = 0 
L2_WB = 0 
n_act = 2 
n_pre = 1 
n_ref = 0 
n_req = 28 
total_req = 28 

Dual Bus Interface Util: 
issued_total_row = 3 
issued_total_col = 28 
Row_Bus_Util =  0.000076 
CoL_Bus_Util = 0.000707 
Either_Row_CoL_Bus_Util = 0.000783 
Issued_on_Two_Bus_Simul_Util = 0.000000 
issued_two_Eff = 0.000000 
queue_avg = 0.003459 


dram_util_bins: 0 0 0 0 0 0 0 0 0 0
dram_eff_bins: 0 0 0 0 0 0 0 0 0 0
mrqq: max=3 avg=0.00345855
Memory Partition 5: 
Cache L2_bank_010:
MSHR contents

Cache L2_bank_011:
MSHR contents

In Dram Latency Queue (total = 0): 
DRAM[5]: 16 bks, busW=4 BL=8 CL=12, tRRD=6 tCCD=2, tRCD=12 tRAS=28 tRP=12 tRC=40
n_cmd=39612 n_nop=39603 n_act=1 n_pre=0 n_ref_event=94701156861968 n_req=8 n_rd=8 n_rd_L2_A=0 n_write=0 n_wr_bk=0 bw_util=0.0004039
n_activity=61 dram_eff=0.2623
bk0: 8a 39589i bk1: 0a 39612i bk2: 0a 39612i bk3: 0a 39612i bk4: 0a 39612i bk5: 0a 39612i bk6: 0a 39612i bk7: 0a 39612i bk8: 0a 39612i bk9: 0a 39612i bk10: 0a 39612i bk11: 0a 39612i bk12: 0a 39612i bk13: 0a 39612i bk14: 0a 39612i bk15: 0a 39612i 

------------------------------------------------------------------------

Row_Buffer_Locality = 0.875000
Row_Buffer_Locality_read = 0.875000
Row_Buffer_Locality_write = -nan
Bank_Level_Parallism = 1.000000
Bank_Level_Parallism_Col = 1.000000
Bank_Level_Parallism_Ready = 1.000000
write_to_read_ratio_blp_rw_average = 0.000000
GrpLevelPara = 1.000000 

BW Util details:
bwutil = 0.000404 
total_CMD = 39612 
util_bw = 16 
Wasted_Col = 18 
Wasted_Row = 0 
Idle = 39578 

BW Util Bottlenecks: 
RCDc_limit = 12 
RCDWRc_limit = 0 
WTRc_limit = 0 
RTWc_limit = 0 
CCDLc_limit = 6 
rwq = 0 
CCDLc_limit_alone = 6 
WTRc_limit_alone = 0 
RTWc_limit_alone = 0 

Commands details: 
total_CMD = 39612 
n_nop = 39603 
Read = 8 
Write = 0 
L2_Alloc = 0 
L2_WB = 0 
n_act = 1 
n_pre = 0 
n_ref = 94701156861968 
n_req = 8 
total_req = 8 

Dual Bus Interface Util: 
issued_total_row = 1 
issued_total_col = 8 
Row_Bus_Util =  0.000025 
CoL_Bus_Util = 0.000202 
Either_Row_CoL_Bus_Util = 0.000227 
Issued_on_Two_Bus_Simul_Util = 0.000000 
issued_two_Eff = 0.000000 
queue_avg = 0.001136 


dram_util_bins: 0 0 0 0 0 0 0 0 0 0
dram_eff_bins: 0 0 0 0 0 0 0 0 0 0
mrqq: max=3 avg=0.00113602

========= L2 cache stats =========
L2_cache_bank[0]: Access = 44, Miss = 34, Miss_rate = 0.773, Pending_hits = 0, Reservation_fails = 0
L2_cache_bank[1]: Access = 0, Miss = 0, Miss_rate = -nan, Pending_hits = 0, Reservation_fails = 0
L2_cache_bank[2]: Access = 8, Miss = 8, Miss_rate = 1.000, Pending_hits = 0, Reservation_fails = 0
L2_cache_bank[3]: Access = 0, Miss = 0, Miss_rate = -nan, Pending_hits = 0, Reservation_fails = 0
L2_cache_bank[4]: Access = 8, Miss = 8, Miss_rate = 1.000, Pending_hits = 0, Reservation_fails = 0
L2_cache_bank[5]: Access = 30, Miss = 20, Miss_rate = 0.667, Pending_hits = 0, Reservation_fails = 0
L2_cache_bank[6]: Access = 8, Miss = 8, Miss_rate = 1.000, Pending_hits = 0, Reservation_fails = 0
L2_cache_bank[7]: Access = 0, Miss = 0, Miss_rate = -nan, Pending_hits = 0, Reservation_fails = 0
L2_cache_bank[8]: Access = 38, Miss = 28, Miss_rate = 0.737, Pending_hits = 0, Reservation_fails = 0
L2_cache_bank[9]: Access = 0, Miss = 0, Miss_rate = -nan, Pending_hits = 0, Reservation_fails = 0
L2_cache_bank[10]: Access = 8, Miss = 8, Miss_rate = 1.000, Pending_hits = 0, Reservation_fails = 0
L2_cache_bank[11]: Access = 0, Miss = 0, Miss_rate = -nan, Pending_hits = 0, Reservation_fails = 0
L2_total_cache_accesses = 144
L2_total_cache_misses = 114
L2_total_cache_miss_rate = 0.7917
L2_total_cache_pending_hits = 0
L2_total_cache_reservation_fails = 0
L2_total_cache_breakdown:
	L2_cache_stats_breakdown[GLOBAL_ACC_R][HIT] = 0
	L2_cache_stats_breakdown[GLOBAL_ACC_R][HIT_RESERVED] = 0
	L2_cache_stats_breakdown[GLOBAL_ACC_R][MISS] = 16
	L2_cache_stats_breakdown[GLOBAL_ACC_R][RESERVATION_FAIL] = 0
	L2_cache_stats_breakdown[GLOBAL_ACC_R][SECTOR_MISS] = 48
	L2_cache_stats_breakdown[LOCAL_ACC_R][HIT] = 0
	L2_cache_stats_breakdown[LOCAL_ACC_R][HIT_RESERVED] = 0
	L2_cache_stats_breakdown[LOCAL_ACC_R][MISS] = 0
	L2_cache_stats_breakdown[LOCAL_ACC_R][RESERVATION_FAIL] = 0
	L2_cache_stats_breakdown[LOCAL_ACC_R][SECTOR_MISS] = 0
	L2_cache_stats_breakdown[CONST_ACC_R][HIT] = 0
	L2_cache_stats_breakdown[CONST_ACC_R][HIT_RESERVED] = 0
	L2_cache_stats_breakdown[CONST_ACC_R][MISS] = 1
	L2_cache_stats_breakdown[CONST_ACC_R][RESERVATION_FAIL] = 0
	L2_cache_stats_breakdown[CONST_ACC_R][SECTOR_MISS] = 1
	L2_cache_stats_breakdown[TEXTURE_ACC_R][HIT] = 0
	L2_cache_stats_breakdown[TEXTURE_ACC_R][HIT_RESERVED] = 0
	L2_cache_stats_breakdown[TEXTURE_ACC_R][MISS] = 0
	L2_cache_stats_breakdown[TEXTURE_ACC_R][RESERVATION_FAIL] = 0
	L2_cache_stats_breakdown[TEXTURE_ACC_R][SECTOR_MISS] = 0
	L2_cache_stats_breakdown[GLOBAL_ACC_W][HIT] = 30
	L2_cache_stats_breakdown[GLOBAL_ACC_W][HIT_RESERVED] = 0
	L2_cache_stats_breakdown[GLOBAL_ACC_W][MISS] = 0
	L2_cache_stats_breakdown[GLOBAL_ACC_W][RESERVATION_FAIL] = 0
	L2_cache_stats_breakdown[GLOBAL_ACC_W][SECTOR_MISS] = 0
	L2_cache_stats_breakdown[LOCAL_ACC_W][HIT] = 0
	L2_cache_stats_breakdown[LOCAL_ACC_W][HIT_RESERVED] = 0
	L2_cache_stats_breakdown[LOCAL_ACC_W][MISS] = 0
	L2_cache_stats_breakdown[LOCAL_ACC_W][RESERVATION_FAIL] = 0
	L2_cache_stats_breakdown[LOCAL_ACC_W][SECTOR_MISS] = 0
	L2_cache_stats_breakdown[L1_WRBK_ACC][HIT] = 0
	L2_cache_stats_breakdown[L1_WRBK_ACC][HIT_RESERVED] = 0
	L2_cache_stats_breakdown[L1_WRBK_ACC][MISS] = 0
	L2_cache_stats_breakdown[L1_WRBK_ACC][RESERVATION_FAIL] = 0
	L2_cache_stats_breakdown[L1_WRBK_ACC][SECTOR_MISS] = 0
	L2_cache_stats_breakdown[L2_WRBK_ACC][HIT] = 0
	L2_cache_stats_breakdown[L2_WRBK_ACC][HIT_RESERVED] = 0
	L2_cache_stats_breakdown[L2_WRBK_ACC][MISS] = 0
	L2_cache_stats_breakdown[L2_WRBK_ACC][RESERVATION_FAIL] = 0
	L2_cache_stats_breakdown[L2_WRBK_ACC][SECTOR_MISS] = 0
	L2_cache_stats_breakdown[INST_ACC_R][HIT] = 0
	L2_cache_stats_breakdown[INST_ACC_R][HIT_RESERVED] = 0
	L2_cache_stats_breakdown[INST_ACC_R][MISS] = 12
	L2_cache_stats_breakdown[INST_ACC_R][RESERVATION_FAIL] = 0
	L2_cache_stats_breakdown[INST_ACC_R][SECTOR_MISS] = 36
	L2_cache_stats_breakdown[L1_WR_ALLOC_R][HIT] = 0
	L2_cache_stats_breakdown[L1_WR_ALLOC_R][HIT_RESERVED] = 0
	L2_cache_stats_breakdown[L1_WR_ALLOC_R][MISS] = 0
	L2_cache_stats_breakdown[L1_WR_ALLOC_R][RESERVATION_FAIL] = 0
	L2_cache_stats_breakdown[L1_WR_ALLOC_R][SECTOR_MISS] = 0
	L2_cache_stats_breakdown[L2_WR_ALLOC_R][HIT] = 0
	L2_cache_stats_breakdown[L2_WR_ALLOC_R][HIT_RESERVED] = 0
	L2_cache_stats_breakdown[L2_WR_ALLOC_R][MISS] = 0
	L2_cache_stats_breakdown[L2_WR_ALLOC_R][RESERVATION_FAIL] = 0
	L2_cache_stats_breakdown[L2_WR_ALLOC_R][SECTOR_MISS] = 0
	L2_cache_stats_breakdown[GLOBAL_ACC_R][TOTAL_ACCESS] = 64
	L2_cache_stats_breakdown[CONST_ACC_R][TOTAL_ACCESS] = 2
	L2_cache_stats_breakdown[GLOBAL_ACC_W][TOTAL_ACCESS] = 30
	L2_cache_stats_breakdown[INST_ACC_R][TOTAL_ACCESS] = 48
L2_total_cache_reservation_fail_breakdown:
L2_cache_data_port_util = 0.000
L2_cache_fill_port_util = 0.000

icnt_total_pkts_mem_to_simt=144
icnt_total_pkts_simt_to_mem=59
LD_mem_lat_dist  0 0 0 0 0 0 0 0 0 0 0 0 0 0 0 0 0 0 0 0 0 0 0 0 0 0 0
ST_mem_lat_dist  0 0 0 0 0 0 0 0 0 0 0 0 0 0 0 0 0 0 0 0 0 0 0 0 0 0 0
----------------------------Interconnect-DETAILS--------------------------------
Class 0:
Packet latency average = 5.29787
	minimum = 5
	maximum = 12
Network latency average = 5.07979
	minimum = 5
	maximum = 6
Slowest packet = 139
Flit latency average = 5
	minimum = 5
	maximum = 5
Slowest flit = 0
Fragmentation average = 0
	minimum = 0
	maximum = 0
Injected packet rate average = 0.000232021
	minimum = 0 (at node 1)
	maximum = 0.00146618 (at node 0)
Accepted packet rate average = 0.000232021
	minimum = 0 (at node 1)
	maximum = 0.0047984 (at node 0)
Injected flit rate average = 0.000250534
	minimum = 0 (at node 1)
	maximum = 0.00196601 (at node 0)
Accepted flit rate average= 0.000250534
	minimum = 0 (at node 1)
	maximum = 0.0047984 (at node 0)
Injected packet length average = 1.07979
Accepted packet length average = 1.07979
Total in-flight flits = 0 (0 measured)
====== Overall Traffic Statistics ======
====== Traffic class 0 ======
Packet latency average = 5.29787 (1 samples)
	minimum = 5 (1 samples)
	maximum = 12 (1 samples)
Network latency average = 5.07979 (1 samples)
	minimum = 5 (1 samples)
	maximum = 6 (1 samples)
Flit latency average = 5 (1 samples)
	minimum = 5 (1 samples)
	maximum = 5 (1 samples)
Fragmentation average = 0 (1 samples)
	minimum = 0 (1 samples)
	maximum = 0 (1 samples)
Injected packet rate average = 0.000232021 (1 samples)
	minimum = 0 (1 samples)
	maximum = 0.00146618 (1 samples)
Accepted packet rate average = 0.000232021 (1 samples)
	minimum = 0 (1 samples)
	maximum = 0.0047984 (1 samples)
Injected flit rate average = 0.000250534 (1 samples)
	minimum = 0 (1 samples)
	maximum = 0.00196601 (1 samples)
Accepted flit rate average = 0.000250534 (1 samples)
	minimum = 0 (1 samples)
	maximum = 0.0047984 (1 samples)
Injected packet size average = 1.07979 (1 samples)
Accepted packet size average = 1.07979 (1 samples)
Hops average = 1 (1 samples)
----------------------------END-of-Interconnect-DETAILS-------------------------


gpgpu_simulation_time = 0 days, 0 hrs, 0 min, 2 sec (2 sec)
gpgpu_simulation_rate = 9940 (inst/sec)
gpgpu_simulation_rate = 15005 (cycle/sec)
gpgpu_silicon_slowdown = 46651x
GPGPU-Sim PTX: Setting up arguments for 8 bytes starting at 0x7fff43b2e238..
GPGPU-Sim PTX: Setting up arguments for 4 bytes starting at 0x7fff43b2e234..
GPGPU-Sim PTX: Setting up arguments for 4 bytes starting at 0x7fff43b2e230..

GPGPU-Sim PTX: cudaLaunch for 0x0x56215422b962 (mode=performance simulation) on stream 0
GPGPU-Sim PTX: finding reconvergence points for '_Z13lud_perimeterPfii'...
GPGPU-Sim PTX: Finding dominators for '_Z13lud_perimeterPfii'...
GPGPU-Sim PTX: Finding immediate dominators for '_Z13lud_perimeterPfii'...
GPGPU-Sim PTX: Finding postdominators for '_Z13lud_perimeterPfii'...
GPGPU-Sim PTX: Finding immediate postdominators for '_Z13lud_perimeterPfii'...
GPGPU-Sim PTX: pre-decoding instructions for '_Z13lud_perimeterPfii'...
GPGPU-Sim PTX: reconvergence points for _Z13lud_perimeterPfii...
GPGPU-Sim PTX:  1 (potential) branch divergence @  PC=0x670 (lud.2.sm_30.ptx:277) @%p3 bra BB1_2;
GPGPU-Sim PTX:    immediate post dominator      @  PC=0xca8 (lud.2.sm_30.ptx:482) mov.u32 %r99, %tid.x;
GPGPU-Sim PTX:  2 (potential) branch divergence @  PC=0x678 (lud.2.sm_30.ptx:278) bra.uni BB1_1;
GPGPU-Sim PTX:    immediate post dominator      @  PC=0xa20 (lud.2.sm_30.ptx:399) add.s32 %r17, %r9, 8;
GPGPU-Sim PTX:  3 (potential) branch divergence @  PC=0xa18 (lud.2.sm_30.ptx:396) bra.uni BB1_3;
GPGPU-Sim PTX:    immediate post dominator      @  PC=0xca8 (lud.2.sm_30.ptx:482) mov.u32 %r99, %tid.x;
GPGPU-Sim PTX:  4 (potential) branch divergence @  PC=0xcc0 (lud.2.sm_30.ptx:485) @%p4 bra BB1_5;
GPGPU-Sim PTX:    immediate post dominator      @  PC=0x2690 (lud.2.sm_30.ptx:1317) bar.sync 0;
GPGPU-Sim PTX:  5 (potential) branch divergence @  PC=0xcc8 (lud.2.sm_30.ptx:486) bra.uni BB1_4;
GPGPU-Sim PTX:    immediate post dominator      @  PC=0x1930 (lud.2.sm_30.ptx:887) mov.u32 %r75, _ZZ13lud_perimeterPfiiE8peri_col;
GPGPU-Sim PTX:  6 (potential) branch divergence @  PC=0x1928 (lud.2.sm_30.ptx:884) bra.uni BB1_6;
GPGPU-Sim PTX:    immediate post dominator      @  PC=0x2690 (lud.2.sm_30.ptx:1317) bar.sync 0;
GPGPU-Sim PTX:  7 (potential) branch divergence @  PC=0x26a8 (lud.2.sm_30.ptx:1320) @%p5 bra BB1_8;
GPGPU-Sim PTX:    immediate post dominator      @  PC=0x2b90 (lud.2.sm_30.ptx:1483) ret;
GPGPU-Sim PTX:  8 (potential) branch divergence @  PC=0x26b0 (lud.2.sm_30.ptx:1321) bra.uni BB1_7;
GPGPU-Sim PTX:    immediate post dominator      @  PC=0x2988 (lud.2.sm_30.ptx:1416) mov.u32 %r85, %tid.x;
GPGPU-Sim PTX:  9 (potential) branch divergence @  PC=0x2980 (lud.2.sm_30.ptx:1413) bra.uni BB1_9;
GPGPU-Sim PTX:    immediate post dominator      @  PC=0x2b90 (lud.2.sm_30.ptx:1483) ret;
GPGPU-Sim PTX: ... end of reconvergence points for _Z13lud_perimeterPfii
GPGPU-Sim PTX: ... done pre-decoding instructions for '_Z13lud_perimeterPfii'.
GPGPU-Sim PTX: pushing kernel '_Z13lud_perimeterPfii' to stream 0, gridDim= (31,1,1) blockDim = (32,1,1) 
GPGPU-Sim uArch: Shader 1 bind to kernel 2 '_Z13lud_perimeterPfii'
GPGPU-Sim uArch: CTA/core = 8, limited by: cta_limit
GPGPU-Sim uArch: Shader 2 bind to kernel 2 '_Z13lud_perimeterPfii'
GPGPU-Sim uArch: Shader 3 bind to kernel 2 '_Z13lud_perimeterPfii'
GPGPU-Sim uArch: Shader 4 bind to kernel 2 '_Z13lud_perimeterPfii'
GPGPU-Sim uArch: Shader 5 bind to kernel 2 '_Z13lud_perimeterPfii'
GPGPU-Sim uArch: Shader 6 bind to kernel 2 '_Z13lud_perimeterPfii'
GPGPU-Sim uArch: Shader 7 bind to kernel 2 '_Z13lud_perimeterPfii'
GPGPU-Sim uArch: Shader 8 bind to kernel 2 '_Z13lud_perimeterPfii'
GPGPU-Sim uArch: Shader 9 bind to kernel 2 '_Z13lud_perimeterPfii'
GPGPU-Sim uArch: Shader 10 bind to kernel 2 '_Z13lud_perimeterPfii'
GPGPU-Sim uArch: Shader 11 bind to kernel 2 '_Z13lud_perimeterPfii'
GPGPU-Sim uArch: Shader 12 bind to kernel 2 '_Z13lud_perimeterPfii'
GPGPU-Sim uArch: Shader 13 bind to kernel 2 '_Z13lud_perimeterPfii'
GPGPU-Sim uArch: Shader 14 bind to kernel 2 '_Z13lud_perimeterPfii'
GPGPU-Sim uArch: Shader 0 bind to kernel 2 '_Z13lud_perimeterPfii'
Destroy streams for kernel 2: size 0
kernel_name = _Z13lud_perimeterPfii 
kernel_launch_uid = 2 
gpu_sim_cycle = 34087
gpu_sim_insn = 610080
gpu_ipc =      17.8977
gpu_tot_sim_cycle = 64097
gpu_tot_sim_insn = 629960
gpu_tot_ipc =       9.8282
gpu_tot_issued_cta = 32
gpu_occupancy = 4.3054% 
gpu_tot_occupancy = 4.1821% 
max_total_param_size = 0
gpu_stall_dramfull = 0
gpu_stall_icnt2sh    = 0
partiton_level_parallism =       0.0986
partiton_level_parallism_total  =       0.0531
partiton_level_parallism_util =       1.1444
partiton_level_parallism_util_total  =       1.1423
L2_BW  =       7.5506 GB/Sec
L2_BW_total  =       4.0657 GB/Sec
gpu_total_sim_rate=89994

========= Core cache stats =========
L1I_cache:
	L1I_total_cache_accesses = 20582
	L1I_total_cache_misses = 2308
	L1I_total_cache_miss_rate = 0.1121
	L1I_total_cache_pending_hits = 0
	L1I_total_cache_reservation_fails = 0
L1D_cache:
	L1D_cache_core[0]: Access = 189, Miss = 96, Miss_rate = 0.508, Pending_hits = 15, Reservation_fails = 0
	L1D_cache_core[1]: Access = 237, Miss = 96, Miss_rate = 0.405, Pending_hits = 16, Reservation_fails = 0
	L1D_cache_core[2]: Access = 158, Miss = 88, Miss_rate = 0.557, Pending_hits = 16, Reservation_fails = 0
	L1D_cache_core[3]: Access = 158, Miss = 88, Miss_rate = 0.557, Pending_hits = 16, Reservation_fails = 0
	L1D_cache_core[4]: Access = 158, Miss = 80, Miss_rate = 0.506, Pending_hits = 16, Reservation_fails = 0
	L1D_cache_core[5]: Access = 158, Miss = 80, Miss_rate = 0.506, Pending_hits = 16, Reservation_fails = 0
	L1D_cache_core[6]: Access = 158, Miss = 80, Miss_rate = 0.506, Pending_hits = 16, Reservation_fails = 0
	L1D_cache_core[7]: Access = 158, Miss = 80, Miss_rate = 0.506, Pending_hits = 16, Reservation_fails = 0
	L1D_cache_core[8]: Access = 158, Miss = 80, Miss_rate = 0.506, Pending_hits = 16, Reservation_fails = 0
	L1D_cache_core[9]: Access = 158, Miss = 80, Miss_rate = 0.506, Pending_hits = 16, Reservation_fails = 0
	L1D_cache_core[10]: Access = 158, Miss = 80, Miss_rate = 0.506, Pending_hits = 16, Reservation_fails = 0
	L1D_cache_core[11]: Access = 158, Miss = 80, Miss_rate = 0.506, Pending_hits = 16, Reservation_fails = 0
	L1D_cache_core[12]: Access = 158, Miss = 80, Miss_rate = 0.506, Pending_hits = 16, Reservation_fails = 0
	L1D_cache_core[13]: Access = 158, Miss = 80, Miss_rate = 0.506, Pending_hits = 16, Reservation_fails = 0
	L1D_cache_core[14]: Access = 158, Miss = 80, Miss_rate = 0.506, Pending_hits = 16, Reservation_fails = 0
	L1D_total_cache_accesses = 2480
	L1D_total_cache_misses = 1248
	L1D_total_cache_miss_rate = 0.5032
	L1D_total_cache_pending_hits = 239
	L1D_total_cache_reservation_fails = 0
	L1D_cache_data_port_util = 0.002
	L1D_cache_fill_port_util = 0.002
L1C_cache:
	L1C_total_cache_accesses = 285
	L1C_total_cache_misses = 90
	L1C_total_cache_miss_rate = 0.3158
	L1C_total_cache_pending_hits = 0
	L1C_total_cache_reservation_fails = 0
L1T_cache:
	L1T_total_cache_accesses = 0
	L1T_total_cache_misses = 0
	L1T_total_cache_pending_hits = 0
	L1T_total_cache_reservation_fails = 0

Total_core_cache_stats:
	Total_core_cache_stats_breakdown[GLOBAL_ACC_R][HIT] = 33
	Total_core_cache_stats_breakdown[GLOBAL_ACC_R][HIT_RESERVED] = 239
	Total_core_cache_stats_breakdown[GLOBAL_ACC_R][MISS] = 1232
	Total_core_cache_stats_breakdown[GLOBAL_ACC_R][RESERVATION_FAIL] = 0
	Total_core_cache_stats_breakdown[GLOBAL_ACC_R][SECTOR_MISS] = 0
	Total_core_cache_stats_breakdown[LOCAL_ACC_R][HIT] = 0
	Total_core_cache_stats_breakdown[LOCAL_ACC_R][HIT_RESERVED] = 0
	Total_core_cache_stats_breakdown[LOCAL_ACC_R][MISS] = 0
	Total_core_cache_stats_breakdown[LOCAL_ACC_R][RESERVATION_FAIL] = 0
	Total_core_cache_stats_breakdown[LOCAL_ACC_R][SECTOR_MISS] = 0
	Total_core_cache_stats_breakdown[CONST_ACC_R][HIT] = 195
	Total_core_cache_stats_breakdown[CONST_ACC_R][HIT_RESERVED] = 0
	Total_core_cache_stats_breakdown[CONST_ACC_R][MISS] = 90
	Total_core_cache_stats_breakdown[CONST_ACC_R][RESERVATION_FAIL] = 0
	Total_core_cache_stats_breakdown[CONST_ACC_R][SECTOR_MISS] = 0
	Total_core_cache_stats_breakdown[TEXTURE_ACC_R][HIT] = 0
	Total_core_cache_stats_breakdown[TEXTURE_ACC_R][HIT_RESERVED] = 0
	Total_core_cache_stats_breakdown[TEXTURE_ACC_R][MISS] = 0
	Total_core_cache_stats_breakdown[TEXTURE_ACC_R][RESERVATION_FAIL] = 0
	Total_core_cache_stats_breakdown[TEXTURE_ACC_R][SECTOR_MISS] = 0
	Total_core_cache_stats_breakdown[GLOBAL_ACC_W][HIT] = 960
	Total_core_cache_stats_breakdown[GLOBAL_ACC_W][HIT_RESERVED] = 0
	Total_core_cache_stats_breakdown[GLOBAL_ACC_W][MISS] = 16
	Total_core_cache_stats_breakdown[GLOBAL_ACC_W][RESERVATION_FAIL] = 0
	Total_core_cache_stats_breakdown[GLOBAL_ACC_W][SECTOR_MISS] = 0
	Total_core_cache_stats_breakdown[LOCAL_ACC_W][HIT] = 0
	Total_core_cache_stats_breakdown[LOCAL_ACC_W][HIT_RESERVED] = 0
	Total_core_cache_stats_breakdown[LOCAL_ACC_W][MISS] = 0
	Total_core_cache_stats_breakdown[LOCAL_ACC_W][RESERVATION_FAIL] = 0
	Total_core_cache_stats_breakdown[LOCAL_ACC_W][SECTOR_MISS] = 0
	Total_core_cache_stats_breakdown[L1_WRBK_ACC][HIT] = 0
	Total_core_cache_stats_breakdown[L1_WRBK_ACC][HIT_RESERVED] = 0
	Total_core_cache_stats_breakdown[L1_WRBK_ACC][MISS] = 0
	Total_core_cache_stats_breakdown[L1_WRBK_ACC][RESERVATION_FAIL] = 0
	Total_core_cache_stats_breakdown[L1_WRBK_ACC][SECTOR_MISS] = 0
	Total_core_cache_stats_breakdown[L2_WRBK_ACC][HIT] = 0
	Total_core_cache_stats_breakdown[L2_WRBK_ACC][HIT_RESERVED] = 0
	Total_core_cache_stats_breakdown[L2_WRBK_ACC][MISS] = 0
	Total_core_cache_stats_breakdown[L2_WRBK_ACC][RESERVATION_FAIL] = 0
	Total_core_cache_stats_breakdown[L2_WRBK_ACC][SECTOR_MISS] = 0
	Total_core_cache_stats_breakdown[INST_ACC_R][HIT] = 18274
	Total_core_cache_stats_breakdown[INST_ACC_R][HIT_RESERVED] = 0
	Total_core_cache_stats_breakdown[INST_ACC_R][MISS] = 2308
	Total_core_cache_stats_breakdown[INST_ACC_R][RESERVATION_FAIL] = 0
	Total_core_cache_stats_breakdown[INST_ACC_R][SECTOR_MISS] = 0
	Total_core_cache_stats_breakdown[L1_WR_ALLOC_R][HIT] = 0
	Total_core_cache_stats_breakdown[L1_WR_ALLOC_R][HIT_RESERVED] = 0
	Total_core_cache_stats_breakdown[L1_WR_ALLOC_R][MISS] = 0
	Total_core_cache_stats_breakdown[L1_WR_ALLOC_R][RESERVATION_FAIL] = 0
	Total_core_cache_stats_breakdown[L1_WR_ALLOC_R][SECTOR_MISS] = 0
	Total_core_cache_stats_breakdown[L2_WR_ALLOC_R][HIT] = 0
	Total_core_cache_stats_breakdown[L2_WR_ALLOC_R][HIT_RESERVED] = 0
	Total_core_cache_stats_breakdown[L2_WR_ALLOC_R][MISS] = 0
	Total_core_cache_stats_breakdown[L2_WR_ALLOC_R][RESERVATION_FAIL] = 0
	Total_core_cache_stats_breakdown[L2_WR_ALLOC_R][SECTOR_MISS] = 0
	Total_core_cache_stats_breakdown[GLOBAL_ACC_R][TOTAL_ACCESS] = 1504
	Total_core_cache_stats_breakdown[CONST_ACC_R][TOTAL_ACCESS] = 285
	Total_core_cache_stats_breakdown[GLOBAL_ACC_W][TOTAL_ACCESS] = 976
	Total_core_cache_stats_breakdown[INST_ACC_R][TOTAL_ACCESS] = 20582

Total_core_cache_fail_stats:
ctas_completed 32, Shader 0 warp_id issue ditsribution:
warp_id:
0, 1, 
distro:
4155, 1206, 
gpgpu_n_tot_thrd_icount = 1290720
gpgpu_n_tot_w_icount = 40335
gpgpu_n_stall_shd_mem = 7448
gpgpu_n_mem_read_local = 0
gpgpu_n_mem_write_local = 0
gpgpu_n_mem_read_global = 1232
gpgpu_n_mem_write_global = 976
gpgpu_n_mem_texture = 0
gpgpu_n_mem_const = 15
gpgpu_n_load_insn  = 24064
gpgpu_n_store_insn = 15616
gpgpu_n_shmem_insn = 202104
gpgpu_n_sstarr_insn = 0
gpgpu_n_tex_insn = 0
gpgpu_n_const_mem_insn = 0
gpgpu_n_param_mem_insn = 6048
gpgpu_n_shmem_bkconflict = 0
gpgpu_n_cache_bkconflict = 0
gpgpu_n_intrawarp_mshr_merge = 0
gpgpu_n_cmem_portconflict = 0
gpgpu_stall_shd_mem[c_mem][resource_stall] = 0
gpgpu_stall_shd_mem[s_mem][bk_conf] = 7448
gpgpu_stall_shd_mem[gl_mem][resource_stall] = 0
gpgpu_stall_shd_mem[gl_mem][coal_stall] = 0
gpgpu_stall_shd_mem[gl_mem][data_port_stall] = 0
gpu_reg_bank_conflict_stalls = 0
Warp Occupancy Distribution:
Stall:8984	W0_Idle:536893	W0_Scoreboard:495526	W1:316	W2:296	W3:276	W4:256	W5:236	W6:216	W7:196	W8:176	W9:156	W10:136	W11:116	W12:96	W13:76	W14:56	W15:34	W16:36860	W17:0	W18:0	W19:0	W20:0	W21:0	W22:0	W23:0	W24:0	W25:0	W26:0	W27:0	W28:0	W29:0	W30:0	W31:0	W32:837
single_issue_nums: WS0:22245	WS1:18090	
dual_issue_nums: WS0:0	WS1:0	
traffic_breakdown_coretomem[CONST_ACC_R] = 120 {8:15,}
traffic_breakdown_coretomem[GLOBAL_ACC_R] = 9856 {8:1232,}
traffic_breakdown_coretomem[GLOBAL_ACC_W] = 70272 {72:976,}
traffic_breakdown_coretomem[INST_ACC_R] = 9448 {8:1181,}
traffic_breakdown_memtocore[CONST_ACC_R] = 1200 {40:30,}
traffic_breakdown_memtocore[GLOBAL_ACC_R] = 197120 {40:4928,}
traffic_breakdown_memtocore[GLOBAL_ACC_W] = 15616 {8:1952,}
traffic_breakdown_memtocore[INST_ACC_R] = 188960 {40:4724,}
maxmflatency = 298 
max_icnt2mem_latency = 130 
maxmrqlatency = 50 
max_icnt2sh_latency = 17 
averagemflatency = 186 
avg_icnt2mem_latency = 17 
avg_mrq_latency = 6 
avg_icnt2sh_latency = 7 
mrq_lat_table:1215 	672 	38 	123 	618 	10 	0 	0 	0 	0 	0 	0 	0 	0 	0 	0 	0 	0 	0 	0 	0 	0 	0 	0 	0 	0 	0 	0 	0 	0 	0 	0 	
dq_lat_table:0 	0 	0 	0 	0 	0 	0 	0 	0 	0 	0 	0 	0 	0 	0 	0 	0 	0 	0 	0 	0 	0 	0 	0 	0 	0 	0 	0 	0 	0 	0 	0 	
mf_lat_table:0 	0 	0 	0 	0 	0 	0 	6048 	862 	0 	0 	0 	0 	0 	0 	0 	0 	0 	0 	0 	0 	0 	0 	0 	0 	0 	0 	0 	0 	0 	0 	0 	
icnt2mem_lat_table:0 	0 	1103 	71 	21 	1937 	270 	2 	0 	0 	0 	0 	0 	0 	0 	0 	0 	0 	0 	0 	0 	0 	0 	0 	
icnt2sh_lat_table:0 	0 	6347 	537 	26 	0 	0 	0 	0 	0 	0 	0 	0 	0 	0 	0 	0 	0 	0 	0 	0 	0 	0 	0 	
mf_lat_pw_table:0 	0 	0 	0 	0 	0 	0 	48 	4 	0 	0 	0 	0 	0 	0 	0 	0 	0 	0 	0 	0 	0 	0 	0 	0 	0 	0 	0 	0 	0 	0 	0 	
maximum concurrent accesses to same row:
dram[0]:        92        88         8         0        29         0        34         0        32         0        32         0         4         0        12         0 
dram[1]:        88        88         0         0         0         0         0         0         0         0         0         0         0         0         0         0 
dram[2]:        88        68         0         8         0        32         0        34         0        32         0        32         0         4         0        12 
[...]
dram[4]:       1021      1277      1012      1306       955      1222      1146      1003      1245      1036      1432       996      1548      1172      1539      1223
dram[5]:       1297      1023      1247      1378      1328      1405      1331      1472      1336      1476      1318      1487      1087       983      1005       897
Memory Partition 0: 
Cache L2_bank_000:
MSHR contents

Cache L2_bank_001:
MSHR contents

In Dram Latency Queue (total = 0): 
DRAM[0]: 16 bks, busW=4 BL=8 CL=12, tRRD=6 tCCD=2, tRCD=12 tRAS=28 tRP=12 tRC=40
n_cmd=2929438 n_nop=2876100 n_act=1849 n_pre=1833 n_ref_event=94701154270800 n_req=42638 n_rd=34978 n_rd_L2_A=0 n_write=0 n_wr_bk=14743 bw_util=0.03395
n_activity=203696 dram_eff=0.4882
bk0: 2142a 2907599i bk1: 2760a 2905255i bk2: 1822a 2911961i bk3: 2288a 2909554i bk4: 2184a 2907124i bk5: 2796a 2903285i bk6: 1990a 2910875i bk7: 2616a 2907903i bk8: 2250a 2906125i bk9: 3072a 2901989i bk10: 1674a 2912738i bk11: 2224a 2908833i bk12: 1612a 2914588i bk13: 2212a 2910033i bk14: 1392a 2917283i bk15: 1944a 2913153i 

------------------------------------------------------------------------

Row_Buffer_Locality = 0.956893
Row_Buffer_Locality_read = 0.979673
Row_Buffer_Locality_write = 0.852872
Bank_Level_Parallism = 2.082335
Bank_Level_Parallism_Col = 0.673050
Bank_Level_Parallism_Ready = 1.173357
write_to_read_ratio_blp_rw_average = 0.000000
GrpLevelPara = 0.000000 

BW Util details:
bwutil = 0.033946 
total_CMD = 2929438 
util_bw = 99442 
Wasted_Col = 65405 
Wasted_Row = 12667 
Idle = 2751924 

BW Util Bottlenecks: 
RCDc_limit = 7100 
RCDWRc_limit = 5525 
WTRc_limit = 14077 
RTWc_limit = 50198 
CCDLc_limit = 46157 
rwq = 0 
CCDLc_limit_alone = 27025 
WTRc_limit_alone = 11093 
RTWc_limit_alone = 34050 

Commands details: 
total_CMD = 2929438 
n_nop = 2876100 
Read = 34978 
Write = 0 
L2_Alloc = 0 
L2_WB = 14743 
n_act = 1849 
n_pre = 1833 
n_ref = 94701154270800 
n_req = 42638 
total_req = 49721 

Dual Bus Interface Util: 
issued_total_row = 3682 
issued_total_col = 49721 
Row_Bus_Util =  0.001257 
CoL_Bus_Util = 0.016973 
Either_Row_CoL_Bus_Util = 0.018208 
Issued_on_Two_Bus_Simul_Util = 0.000022 
issued_two_Eff = 0.001219 
queue_avg = 0.413757 


dram_util_bins: 0 0 0 0 0 0 0 0 0 0
dram_eff_bins: 0 0 0 0 0 0 0 0 0 0
mrqq: max=64 avg=0.413757
Memory Partition 1: 
Cache L2_bank_002:
MSHR contents

Cache L2_bank_003:
MSHR contents

In Dram Latency Queue (total = 0): 
DRAM[1]: 16 bks, busW=4 BL=8 CL=12, tRRD=6 tCCD=2, tRCD=12 tRAS=28 tRP=12 tRC=40
n_cmd=2929438 n_nop=2870528 n_act=1595 n_pre=1579 n_ref_event=4560869750798743682 n_req=47452 n_rd=38856 n_rd_L2_A=0 n_write=0 n_wr_bk=16938 bw_util=0.03809
n_activity=214553 dram_eff=0.5201
bk0: 2512a 2904839i bk1: 2840a 2903627i bk2: 2136a 2908540i bk3: 2296a 2908633i bk4: 2600a 2901435i bk5: 2872a 2900882i bk6: 2510a 2906431i bk7: 2592a 2905529i bk8: 2956a 2900080i bk9: 3128a 2899914i bk10: 2186a 2908083i bk11: 2232a 2908727i bk12: 1968a 2908976i bk13: 2264a 2907074i bk14: 1812a 2913220i bk15: 1952a 2912623i 

------------------------------------------------------------------------

Row_Buffer_Locality = 0.966682
Row_Buffer_Locality_read = 0.984430
Row_Buffer_Locality_write = 0.886459
Bank_Level_Parallism = 2.236426
Bank_Level_Parallism_Col = 2.237833
Bank_Level_Parallism_Ready = 1.205197
write_to_read_ratio_blp_rw_average = 0.543804
GrpLevelPara = 1.572649 

BW Util details:
bwutil = 0.038092 
total_CMD = 2929438 
util_bw = 111588 
Wasted_Col = 67434 
Wasted_Row = 10829 
Idle = 2739587 

BW Util Bottlenecks: 
RCDc_limit = 5825 
RCDWRc_limit = 4514 
WTRc_limit = 15617 
RTWc_limit = 56291 
CCDLc_limit = 49121 
rwq = 0 
CCDLc_limit_alone = 27969 
WTRc_limit_alone = 12312 
RTWc_limit_alone = 38444 

Commands details: 
total_CMD = 2929438 
n_nop = 2870528 
Read = 38856 
Write = 0 
L2_Alloc = 0 
L2_WB = 16938 
n_act = 1595 
n_pre = 1579 
n_ref = 4560869750798743682 
n_req = 47452 
total_req = 55794 

Dual Bus Interface Util: 
issued_total_row = 3174 
issued_total_col = 55794 
Row_Bus_Util =  0.001083 
CoL_Bus_Util = 0.019046 
Either_Row_CoL_Bus_Util = 0.020110 
Issued_on_Two_Bus_Simul_Util = 0.000020 
issued_two_Eff = 0.000985 
queue_avg = 0.506572 


dram_util_bins: 0 0 0 0 0 0 0 0 0 0
dram_eff_bins: 0 0 0 0 0 0 0 0 0 0
mrqq: max=64 avg=0.506572
Memory Partition 2: 
Cache L2_bank_004:
MSHR contents

Cache L2_bank_005:
MSHR contents

In Dram Latency Queue (total = 0): 
DRAM[2]: 16 bks, busW=4 BL=8 CL=12, tRRD=6 tCCD=2, tRCD=12 tRAS=28 tRP=12 tRC=40
n_cmd=2929438 n_nop=2876072 n_act=1855 n_pre=1839 n_ref_event=0 n_req=42650 n_rd=34984 n_rd_L2_A=0 n_write=0 n_wr_bk=14757 bw_util=0.03396
n_activity=203903 dram_eff=0.4879
bk0: 2778a 2905892i bk1: 2148a 2908005i bk2: 2308a 2909473i bk3: 1796a 2911305i bk4: 2808a 2904211i bk5: 2174a 2908215i bk6: 2640a 2907105i bk7: 1958a 2910328i bk8: 3078a 2902304i bk9: 2242a 2906896i bk10: 2308a 2909442i bk11: 1592a 2912934i bk12: 2220a 2908963i bk13: 1608a 2914043i bk14: 1972a 2913732i bk15: 1354a 2917197i 

------------------------------------------------------------------------

Row_Buffer_Locality = 0.956835
Row_Buffer_Locality_read = 0.979562
Row_Buffer_Locality_write = 0.853118
Bank_Level_Parallism = 2.074465
Bank_Level_Parallism_Col = 2.063779
Bank_Level_Parallism_Ready = 1.174619
write_to_read_ratio_blp_rw_average = 0.534400
GrpLevelPara = 1.491889 

BW Util details:
bwutil = 0.033959 
total_CMD = 2929438 
util_bw = 99482 
Wasted_Col = 65312 
Wasted_Row = 12599 
Idle = 2752045 

BW Util Bottlenecks: 
RCDc_limit = 7271 
RCDWRc_limit = 5443 
WTRc_limit = 13702 
RTWc_limit = 49657 
CCDLc_limit = 45145 
rwq = 0 
CCDLc_limit_alone = 26292 
WTRc_limit_alone = 10837 
RTWc_limit_alone = 33669 

Commands details: 
total_CMD = 2929438 
n_nop = 2876072 
Read = 34984 
Write = 0 
L2_Alloc = 0 
L2_WB = 14757 
n_act = 1855 
n_pre = 1839 
n_ref = 0 
n_req = 42650 
total_req = 49741 

Dual Bus Interface Util: 
issued_total_row = 3694 
issued_total_col = 49741 
Row_Bus_Util =  0.001261 
CoL_Bus_Util = 0.016980 
Either_Row_CoL_Bus_Util = 0.018217 
Issued_on_Two_Bus_Simul_Util = 0.000024 
issued_two_Eff = 0.001293 
queue_avg = 0.403530 


dram_util_bins: 0 0 0 0 0 0 0 0 0 0
dram_eff_bins: 0 0 0 0 0 0 0 0 0 0
mrqq: max=64 avg=0.40353
Memory Partition 3: 
Cache L2_bank_006:
MSHR contents

Cache L2_bank_007:
MSHR contents

In Dram Latency Queue (total = 0): 
DRAM[3]: 16 bks, busW=4 BL=8 CL=12, tRRD=6 tCCD=2, tRCD=12 tRAS=28 tRP=12 tRC=40
n_cmd=2929438 n_nop=2870464 n_act=1591 n_pre=1575 n_ref_event=13984 n_req=47507 n_rd=38902 n_rd_L2_A=0 n_write=0 n_wr_bk=16954 bw_util=0.03813
n_activity=215905 dram_eff=0.5174
bk0: 2840a 2903009i bk1: 2522a 2905439i bk2: 2320a 2908691i bk3: 2112a 2909451i bk4: 2872a 2901031i bk5: 2610a 2903537i bk6: 2624a 2906548i bk7: 2482a 2906473i bk8: 3128a 2900638i bk9: 2962a 2899097i bk10: 2320a 2908296i bk11: 2098a 2907463i bk12: 2264a 2907949i bk13: 1984a 2908703i bk14: 1984a 2912485i bk15: 1780a 2912518i 

------------------------------------------------------------------------

Row_Buffer_Locality = 0.966826
Row_Buffer_Locality_read = 0.984500
Row_Buffer_Locality_write = 0.886926
Bank_Level_Parallism = 2.219801
Bank_Level_Parallism_Col = 2.222032
Bank_Level_Parallism_Ready = 1.208301
write_to_read_ratio_blp_rw_average = 0.544904
GrpLevelPara = 1.579457 

BW Util details:
bwutil = 0.038134 
total_CMD = 2929438 
util_bw = 111712 
Wasted_Col = 67602 
Wasted_Row = 10861 
Idle = 2739263 

BW Util Bottlenecks: 
RCDc_limit = 5941 
RCDWRc_limit = 4527 
WTRc_limit = 15111 
RTWc_limit = 55938 
CCDLc_limit = 48144 
rwq = 0 
CCDLc_limit_alone = 27757 
WTRc_limit_alone = 12056 
RTWc_limit_alone = 38606 

Commands details: 
total_CMD = 2929438 
n_nop = 2870464 
Read = 38902 
Write = 0 
L2_Alloc = 0 
L2_WB = 16954 
n_act = 1591 
n_pre = 1575 
n_ref = 13984 
n_req = 47507 
total_req = 55856 

Dual Bus Interface Util: 
issued_total_row = 3166 
issued_total_col = 55856 
Row_Bus_Util =  0.001081 
CoL_Bus_Util = 0.019067 
Either_Row_CoL_Bus_Util = 0.020132 
Issued_on_Two_Bus_Simul_Util = 0.000016 
issued_two_Eff = 0.000814 
queue_avg = 0.502466 


dram_util_bins: 0 0 0 0 0 0 0 0 0 0
dram_eff_bins: 0 0 0 0 0 0 0 0 0 0
mrqq: max=64 avg=0.502466
Memory Partition 4: 
Cache L2_bank_008:
MSHR contents

Cache L2_bank_009:
MSHR contents

In Dram Latency Queue (total = 0): 
DRAM[4]: 16 bks, busW=4 BL=8 CL=12, tRRD=6 tCCD=2, tRCD=12 tRAS=28 tRP=12 tRC=40
n_cmd=2929438 n_nop=2876435 n_act=1804 n_pre=1788 n_ref_event=0 n_req=42418 n_rd=34782 n_rd_L2_A=0 n_write=0 n_wr_bk=14696 bw_util=0.03378
n_activity=200962 dram_eff=0.4924
bk0: 2122a 2907453i bk1: 2726a 2905059i bk2: 1816a 2911658i bk3: 2284a 2909473i bk4: 2144a 2908537i bk5: 2800a 2903348i bk6: 1976a 2911222i bk7: 2616a 2907513i bk8: 2212a 2906693i bk9: 3074a 2902653i bk10: 1652a 2913426i bk11: 2220a 2908960i bk12: 1600a 2913671i bk13: 2212a 2909541i bk14: 1388a 2917728i bk15: 1940a 2913789i 

------------------------------------------------------------------------

Row_Buffer_Locality = 0.957825
Row_Buffer_Locality_read = 0.980335
Row_Buffer_Locality_write = 0.855291
Bank_Level_Parallism = 2.092385
Bank_Level_Parallism_Col = 2.080717
Bank_Level_Parallism_Ready = 1.164815
write_to_read_ratio_blp_rw_average = 0.540351
GrpLevelPara = 1.497313 

BW Util details:
bwutil = 0.033780 
total_CMD = 2929438 
util_bw = 98956 
Wasted_Col = 64394 
Wasted_Row = 12004 
Idle = 2754084 

BW Util Bottlenecks: 
RCDc_limit = 6976 
RCDWRc_limit = 5338 
WTRc_limit = 12906 
RTWc_limit = 50669 
CCDLc_limit = 45355 
rwq = 0 
CCDLc_limit_alone = 26360 
WTRc_limit_alone = 10252 
RTWc_limit_alone = 34328 

Commands details: 
total_CMD = 2929438 
n_nop = 2876435 
Read = 34782 
Write = 0 
L2_Alloc = 0 
L2_WB = 14696 
n_act = 1804 
n_pre = 1788 
n_ref = 0 
n_req = 42418 
total_req = 49478 

Dual Bus Interface Util: 
issued_total_row = 3592 
issued_total_col = 49478 
Row_Bus_Util =  0.001226 
CoL_Bus_Util = 0.016890 
Either_Row_CoL_Bus_Util = 0.018093 
Issued_on_Two_Bus_Simul_Util = 0.000023 
issued_two_Eff = 0.001264 
queue_avg = 0.408638 


dram_util_bins: 0 0 0 0 0 0 0 0 0 0
dram_eff_bins: 0 0 0 0 0 0 0 0 0 0
mrqq: max=64 avg=0.408638
Memory Partition 5: 
Cache L2_bank_010:
MSHR contents

Cache L2_bank_011:
MSHR contents

In Dram Latency Queue (total = 0): 
DRAM[5]: 16 bks, busW=4 BL=8 CL=12, tRRD=6 tCCD=2, tRCD=12 tRAS=28 tRP=12 tRC=40
n_cmd=2929438 n_nop=2871040 n_act=1549 n_pre=1533 n_ref_event=94701156861968 n_req=47075 n_rd=38538 n_rd_L2_A=0 n_write=0 n_wr_bk=16828 bw_util=0.0378
n_activity=211332 dram_eff=0.524
bk0: 2502a 2905798i bk1: 2728a 2904841i bk2: 2132a 2909624i bk3: 2296a 2908518i bk4: 2590a 2903315i bk5: 2848a 2901658i bk6: 2514a 2906593i bk7: 2592a 2905523i bk8: 2930a 2900490i bk9: 3104a 2900011i bk10: 2110a 2908165i bk11: 2232a 2907364i bk12: 1972a 2908592i bk13: 2240a 2907455i bk14: 1796a 2912858i bk15: 1952a 2913697i 

------------------------------------------------------------------------

Row_Buffer_Locality = 0.967414
Row_Buffer_Locality_read = 0.985183
Row_Buffer_Locality_write = 0.887197
Bank_Level_Parallism = 2.241908
Bank_Level_Parallism_Col = 2.236484
Bank_Level_Parallism_Ready = 1.205425
write_to_read_ratio_blp_rw_average = 0.541908
GrpLevelPara = 1.588461 

BW Util details:
bwutil = 0.037800 
total_CMD = 2929438 
util_bw = 110732 
Wasted_Col = 66042 
Wasted_Row = 9888 
Idle = 2742776 

BW Util Bottlenecks: 
RCDc_limit = 5539 
RCDWRc_limit = 4490 
WTRc_limit = 15838 
RTWc_limit = 54445 
CCDLc_limit = 47386 
rwq = 0 
CCDLc_limit_alone = 27224 
WTRc_limit_alone = 12529 
RTWc_limit_alone = 37592 

Commands details: 
total_CMD = 2929438 
n_nop = 2871040 
Read = 38538 
Write = 0 
L2_Alloc = 0 
L2_WB = 16828 
n_act = 1549 
n_pre = 1533 
n_ref = 94701156861968 
n_req = 47075 
total_req = 55366 

Dual Bus Interface Util: 
issued_total_row = 3082 
issued_total_col = 55366 
Row_Bus_Util =  0.001052 
CoL_Bus_Util = 0.018900 
Either_Row_CoL_Bus_Util = 0.019935 
Issued_on_Two_Bus_Simul_Util = 0.000017 
issued_two_Eff = 0.000856 
queue_avg = 0.507863 


dram_util_bins: 0 0 0 0 0 0 0 0 0 0
dram_eff_bins: 0 0 0 0 0 0 0 0 0 0
mrqq: max=64 avg=0.507863

========= L2 cache stats =========
L2_cache_bank[0]: Access = 158114, Miss = 15912, Miss_rate = 0.101, Pending_hits = 7261, Reservation_fails = 6312
L2_cache_bank[1]: Access = 190620, Miss = 19928, Miss_rate = 0.105, Pending_hits = 9128, Reservation_fails = 7374
L2_cache_bank[2]: Access = 173868, Miss = 19012, Miss_rate = 0.109, Pending_hits = 7823, Reservation_fails = 6063
L2_cache_bank[3]: Access = 199808, Miss = 20176, Miss_rate = 0.101, Pending_hits = 8773, Reservation_fails = 9180
L2_cache_bank[4]: Access = 188532, Miss = 20120, Miss_rate = 0.107, Pending_hits = 8750, Reservation_fails = 5963
L2_cache_bank[5]: Access = 158724, Miss = 15704, Miss_rate = 0.099, Pending_hits = 7590, Reservation_fails = 7806
L2_cache_bank[6]: Access = 197664, Miss = 20352, Miss_rate = 0.103, Pending_hits = 8364, Reservation_fails = 6070
L2_cache_bank[7]: Access = 176056, Miss = 18898, Miss_rate = 0.107, Pending_hits = 8203, Reservation_fails = 6953
L2_cache_bank[8]: Access = 156020, Miss = 15752, Miss_rate = 0.101, Pending_hits = 7271, Reservation_fails = 5893
L2_cache_bank[9]: Access = 189120, Miss = 19880, Miss_rate = 0.105, Pending_hits = 8895, Reservation_fails = 7309
L2_cache_bank[10]: Access = 174756, Miss = 18896, Miss_rate = 0.108, Pending_hits = 7937, Reservation_fails = 5341
L2_cache_bank[11]: Access = 196704, Miss = 19992, Miss_rate = 0.102, Pending_hits = 8198, Reservation_fails = 6109
L2_total_cache_accesses = 2159986
L2_total_cache_misses = 224622
L2_total_cache_miss_rate = 0.1040
L2_total_cache_pending_hits = 98193
L2_total_cache_reservation_fails = 80373
L2_total_cache_breakdown:
	L2_cache_stats_breakdown[GLOBAL_ACC_R][HIT] = 1366291
	L2_cache_stats_breakdown[GLOBAL_ACC_R][HIT_RESERVED] = 90195
	L2_cache_stats_breakdown[GLOBAL_ACC_R][MISS] = 53815
	L2_cache_stats_breakdown[GLOBAL_ACC_R][RESERVATION_FAIL] = 9175
	L2_cache_stats_breakdown[GLOBAL_ACC_R][SECTOR_MISS] = 163631
	L2_cache_stats_breakdown[LOCAL_ACC_R][HIT] = 0
	L2_cache_stats_breakdown[LOCAL_ACC_R][HIT_RESERVED] = 0
	L2_cache_stats_breakdown[LOCAL_ACC_R][MISS] = 0
	L2_cache_stats_breakdown[LOCAL_ACC_R][RESERVATION_FAIL] = 0
	L2_cache_stats_breakdown[LOCAL_ACC_R][SECTOR_MISS] = 0
	L2_cache_stats_breakdown[CONST_ACC_R][HIT] = 28
	L2_cache_stats_breakdown[CONST_ACC_R][HIT_RESERVED] = 0
	L2_cache_stats_breakdown[CONST_ACC_R][MISS] = 1
	L2_cache_stats_breakdown[CONST_ACC_R][RESERVATION_FAIL] = 0
	L2_cache_stats_breakdown[CONST_ACC_R][SECTOR_MISS] = 1
	L2_cache_stats_breakdown[TEXTURE_ACC_R][HIT] = 0
	L2_cache_stats_breakdown[TEXTURE_ACC_R][HIT_RESERVED] = 0
	L2_cache_stats_breakdown[TEXTURE_ACC_R][MISS] = 0
	L2_cache_stats_breakdown[TEXTURE_ACC_R][RESERVATION_FAIL] = 0
	L2_cache_stats_breakdown[TEXTURE_ACC_R][SECTOR_MISS] = 0
	L2_cache_stats_breakdown[GLOBAL_ACC_W][HIT] = 361442
	L2_cache_stats_breakdown[GLOBAL_ACC_W][HIT_RESERVED] = 0
	L2_cache_stats_breakdown[GLOBAL_ACC_W][MISS] = 1791
	L2_cache_stats_breakdown[GLOBAL_ACC_W][RESERVATION_FAIL] = 0
	L2_cache_stats_breakdown[GLOBAL_ACC_W][SECTOR_MISS] = 1791
	L2_cache_stats_breakdown[LOCAL_ACC_W][HIT] = 0
	L2_cache_stats_breakdown[LOCAL_ACC_W][HIT_RESERVED] = 0
	L2_cache_stats_breakdown[LOCAL_ACC_W][MISS] = 0
	L2_cache_stats_breakdown[LOCAL_ACC_W][RESERVATION_FAIL] = 0
	L2_cache_stats_breakdown[LOCAL_ACC_W][SECTOR_MISS] = 0
	L2_cache_stats_breakdown[L1_WRBK_ACC][HIT] = 0
	L2_cache_stats_breakdown[L1_WRBK_ACC][HIT_RESERVED] = 0
	L2_cache_stats_breakdown[L1_WRBK_ACC][MISS] = 0
	L2_cache_stats_breakdown[L1_WRBK_ACC][RESERVATION_FAIL] = 0
	L2_cache_stats_breakdown[L1_WRBK_ACC][SECTOR_MISS] = 0
	L2_cache_stats_breakdown[L2_WRBK_ACC][HIT] = 0
	L2_cache_stats_breakdown[L2_WRBK_ACC][HIT_RESERVED] = 0
	L2_cache_stats_breakdown[L2_WRBK_ACC][MISS] = 0
	L2_cache_stats_breakdown[L2_WRBK_ACC][RESERVATION_FAIL] = 0
	L2_cache_stats_breakdown[L2_WRBK_ACC][SECTOR_MISS] = 0
	L2_cache_stats_breakdown[INST_ACC_R][HIT] = 109410
	L2_cache_stats_breakdown[INST_ACC_R][HIT_RESERVED] = 7998
	L2_cache_stats_breakdown[INST_ACC_R][MISS] = 898
	L2_cache_stats_breakdown[INST_ACC_R][RESERVATION_FAIL] = 71198
	L2_cache_stats_breakdown[INST_ACC_R][SECTOR_MISS] = 2694
	L2_cache_stats_breakdown[L1_WR_ALLOC_R][HIT] = 0
	L2_cache_stats_breakdown[L1_WR_ALLOC_R][HIT_RESERVED] = 0
	L2_cache_stats_breakdown[L1_WR_ALLOC_R][MISS] = 0
	L2_cache_stats_breakdown[L1_WR_ALLOC_R][RESERVATION_FAIL] = 0
	L2_cache_stats_breakdown[L1_WR_ALLOC_R][SECTOR_MISS] = 0
	L2_cache_stats_breakdown[L2_WR_ALLOC_R][HIT] = 0
	L2_cache_stats_breakdown[L2_WR_ALLOC_R][HIT_RESERVED] = 0
	L2_cache_stats_breakdown[L2_WR_ALLOC_R][MISS] = 0
	L2_cache_stats_breakdown[L2_WR_ALLOC_R][RESERVATION_FAIL] = 0
	L2_cache_stats_breakdown[L2_WR_ALLOC_R][SECTOR_MISS] = 0
	L2_cache_stats_breakdown[GLOBAL_ACC_R][TOTAL_ACCESS] = 1673932
	L2_cache_stats_breakdown[CONST_ACC_R][TOTAL_ACCESS] = 30
	L2_cache_stats_breakdown[GLOBAL_ACC_W][TOTAL_ACCESS] = 365024
	L2_cache_stats_breakdown[INST_ACC_R][TOTAL_ACCESS] = 121000
L2_total_cache_reservation_fail_breakdown:
	L2_cache_stats_fail_breakdown[GLOBAL_ACC_R][MISS_QUEUE_FULL] = 2336
	L2_cache_stats_fail_breakdown[GLOBAL_ACC_R][MSHR_MERGE_ENRTY_FAIL] = 6839
	L2_cache_stats_fail_breakdown[INST_ACC_R][MISS_QUEUE_FULL] = 1
	L2_cache_stats_fail_breakdown[INST_ACC_R][MSHR_MERGE_ENRTY_FAIL] = 71197
L2_cache_data_port_util = 0.069
L2_cache_fill_port_util = 0.008

icnt_total_pkts_mem_to_simt=2159986
icnt_total_pkts_simt_to_mem=813772
LD_mem_lat_dist  0 0 0 0 0 0 0 0 0 0 0 0 0 0 0 0 0 0 0 0 0 0 0 0 0 0 0
ST_mem_lat_dist  0 0 0 0 0 0 0 0 0 0 0 0 0 0 0 0 0 0 0 0 0 0 0 0 0 0 0
----------------------------Interconnect-DETAILS--------------------------------
Class 0:
Packet latency average = 5.35484
	minimum = 5
	maximum = 12
Network latency average = 5.09677
	minimum = 5
	maximum = 6
Slowest packet = 2791197
Flit latency average = 5
	minimum = 5
	maximum = 5
Slowest flit = 2973588
Fragmentation average = 0
	minimum = 0
	maximum = 0
Injected packet rate average = 0.000223749
	minimum = 0 (at node 0)
	maximum = 0.00148108 (at node 21)
Accepted packet rate average = 0.000223749
	minimum = 0 (at node 0)
	maximum = 0.00459913 (at node 1)
Injected flit rate average = 0.000245403
	minimum = 0 (at node 0)
	maximum = 0.00202674 (at node 1)
Accepted flit rate average= 0.000245403
	minimum = 0 (at node 0)
	maximum = 0.00459913 (at node 1)
Injected packet length average = 1.09677
Accepted packet length average = 1.09677
Total in-flight flits = 0 (0 measured)
====== Overall Traffic Statistics ======
====== Traffic class 0 ======
Packet latency average = 21.7487 (94 samples)
	minimum = 5 (94 samples)
	maximum = 209.67 (94 samples)
Network latency average = 20.4397 (94 samples)
	minimum = 5 (94 samples)
	maximum = 207 (94 samples)
Flit latency average = 19.5833 (94 samples)
	minimum = 5 (94 samples)
	maximum = 206.511 (94 samples)
Fragmentation average = 0.00166123 (94 samples)
	minimum = 0 (94 samples)
	maximum = 41.766 (94 samples)
Injected packet rate average = 0.0583279 (94 samples)
	minimum = 0.0168534 (94 samples)
	maximum = 0.170025 (94 samples)
Accepted packet rate average = 0.0583279 (94 samples)
	minimum = 0.0168085 (94 samples)
	maximum = 0.0976405 (94 samples)
Injected flit rate average = 0.0620866 (94 samples)
	minimum = 0.0218791 (94 samples)
	maximum = 0.170284 (94 samples)
Accepted flit rate average = 0.0620866 (94 samples)
	minimum = 0.0224828 (94 samples)
	maximum = 0.0976736 (94 samples)
Injected packet size average = 1.06444 (94 samples)
Accepted packet size average = 1.06444 (94 samples)
Hops average = 1 (94 samples)
----------------------------END-of-Interconnect-DETAILS-------------------------


gpgpu_simulation_time = 0 days, 0 hrs, 10 min, 1 sec (601 sec)
gpgpu_simulation_rate = 429919 (inst/sec)
gpgpu_simulation_rate = 3692 (cycle/sec)
gpgpu_silicon_slowdown = 189599x
Time consumed(ms): 600518.473000
After LUD
>>>Verify<<<<
GPGPU-Sim: *** exit detected ***
