

        *** GPGPU-Sim Simulator Version 4.0.0  [build gpgpu-sim_git-commit-90ec3399763d7c8512cfe7dc193473086c38ca38_modified_0.0] ***


GPGPU-Sim PTX: simulation mode 0 (can change with PTX_SIM_MODE_FUNC environment variable:
               1=functional simulation only, 0=detailed performance simulator)
GPGPU-Sim PTX: overriding embedded ptx with ptx file (PTX_SIM_USE_PTX_FILE is set)
GPGPU-Sim: Configuration options:

-save_embedded_ptx                      0 # saves ptx files embedded in binary as <n>.ptx
-keep                                   0 # keep intermediate files created by GPGPU-Sim when interfacing with external programs
-gpgpu_ptx_save_converted_ptxplus                    0 # Saved converted ptxplus to a file
-gpgpu_occupancy_sm_number                   20 # The SM number to pass to ptxas when getting register usage for computing GPU occupancy. This parameter is required in the config.
-ptx_opcode_latency_int      4,13,4,5,145,32 # Opcode latencies for integers <ADD,MAX,MUL,MAD,DIV,SHFL>Default 1,1,19,25,145,32
-ptx_opcode_latency_fp          4,13,4,5,39 # Opcode latencies for single precision floating points <ADD,MAX,MUL,MAD,DIV>Default 1,1,1,1,30
-ptx_opcode_latency_dp         8,19,8,8,330 # Opcode latencies for double precision floating points <ADD,MAX,MUL,MAD,DIV>Default 8,8,8,8,335
-ptx_opcode_latency_sfu                    8 # Opcode latencies for SFU instructionsDefault 8
-ptx_opcode_latency_tesnor                   64 # Opcode latencies for Tensor instructionsDefault 64
-ptx_opcode_initiation_int          1,2,2,1,8,4 # Opcode initiation intervals for integers <ADD,MAX,MUL,MAD,DIV,SHFL>Default 1,1,4,4,32,4
-ptx_opcode_initiation_fp            1,2,1,1,4 # Opcode initiation intervals for single precision floating points <ADD,MAX,MUL,MAD,DIV>Default 1,1,1,1,5
-ptx_opcode_initiation_dp         8,16,8,8,130 # Opcode initiation intervals for double precision floating points <ADD,MAX,MUL,MAD,DIV>Default 8,8,8,8,130
-ptx_opcode_initiation_sfu                    8 # Opcode initiation intervals for sfu instructionsDefault 8
-ptx_opcode_initiation_tensor                   64 # Opcode initiation intervals for tensor instructionsDefault 64
-cdp_latency         7200,8000,100,12000,1600 # CDP API latency <cudaStreamCreateWithFlags, cudaGetParameterBufferV2_init_perWarp, cudaGetParameterBufferV2_perKernel, cudaLaunchDeviceV2_init_perWarp, cudaLaunchDevicV2_perKernel>Default 7200,8000,100,12000,1600
-network_mode                           1 # Interconnection network mode
-inter_config_file   config_fermi_islip.icnt # Interconnection network config file
-icnt_in_buffer_limit                   64 # in_buffer_limit
-icnt_out_buffer_limit                   64 # out_buffer_limit
-icnt_subnets                           2 # subnets
-icnt_arbiter_algo                      1 # arbiter_algo
-icnt_verbose                           0 # inct_verbose
-icnt_grant_cycles                      1 # grant_cycles
-gpgpu_ptx_use_cuobjdump                    1 # Use cuobjdump to extract ptx and sass from binaries
-gpgpu_experimental_lib_support                    0 # Try to extract code from cuda libraries [Broken because of unknown cudaGetExportTable]
-checkpoint_option                      0 #  checkpointing flag (0 = no checkpoint)
-checkpoint_kernel                      1 #  checkpointing during execution of which kernel (1- 1st kernel)
-checkpoint_CTA                         0 #  checkpointing after # of CTA (< less than total CTA)
-resume_option                          0 #  resume flag (0 = no resume)
-resume_kernel                          0 #  Resume from which kernel (1= 1st kernel)
-resume_CTA                             0 #  resume from which CTA 
-checkpoint_CTA_t                       0 #  resume from which CTA 
-checkpoint_insn_Y                      0 #  resume from which CTA 
-gpgpu_ptx_convert_to_ptxplus                    0 # Convert SASS (native ISA) to ptxplus and run ptxplus
-gpgpu_ptx_force_max_capability                   20 # Force maximum compute capability
-gpgpu_ptx_inst_debug_to_file                    0 # Dump executed instructions' debug information to file
-gpgpu_ptx_inst_debug_file       inst_debug.txt # Executed instructions' debug output file
-gpgpu_ptx_inst_debug_thread_uid                    1 # Thread UID for executed instructions' debug output
-gpgpu_simd_model                       1 # 1 = post-dominator
-gpgpu_shader_core_pipeline              1536:32 # shader core pipeline config, i.e., {<nthread>:<warpsize>}
-gpgpu_tex_cache:l1  N:4:128:24,L:R:m:N:L,T:128:4,128:2 # per-shader L1 texture cache  (READ-ONLY) config  {<nsets>:<bsize>:<assoc>,<rep>:<wr>:<alloc>:<wr_alloc>,<mshr>:<N>:<merge>,<mq>:<rf>}
-gpgpu_const_cache:l1 N:64:64:2,L:R:f:N:L,S:2:32,4 # per-shader L1 constant memory cache  (READ-ONLY) config  {<nsets>:<bsize>:<assoc>,<rep>:<wr>:<alloc>:<wr_alloc>,<mshr>:<N>:<merge>,<mq>} 
-gpgpu_cache:il1     N:4:128:4,L:R:f:N:L,S:2:32,4 # shader L1 instruction cache config  {<nsets>:<bsize>:<assoc>,<rep>:<wr>:<alloc>:<wr_alloc>,<mshr>:<N>:<merge>,<mq>} 
-gpgpu_cache:dl1     N:32:128:4,L:L:m:N:H,S:64:8,8 # per-shader L1 data cache config  {<nsets>:<bsize>:<assoc>,<rep>:<wr>:<alloc>:<wr_alloc>,<mshr>:<N>:<merge>,<mq> | none}
-gpgpu_l1_banks                         1 # The number of L1 cache banks
-gpgpu_l1_banks_byte_interleaving                   32 # l1 banks byte interleaving granularity
-gpgpu_l1_banks_hashing_function                    0 # l1 banks hashing function
-gpgpu_l1_latency                      35 # L1 Hit Latency
-gpgpu_smem_latency                    26 # smem Latency
-gpgpu_cache:dl1PrefL1                 none # per-shader L1 data cache config  {<nsets>:<bsize>:<assoc>,<rep>:<wr>:<alloc>:<wr_alloc>,<mshr>:<N>:<merge>,<mq> | none}
-gpgpu_cache:dl1PrefShared                 none # per-shader L1 data cache config  {<nsets>:<bsize>:<assoc>,<rep>:<wr>:<alloc>:<wr_alloc>,<mshr>:<N>:<merge>,<mq> | none}
-gpgpu_gmem_skip_L1D                    0 # global memory access skip L1D cache (implements -Xptxas -dlcm=cg, default=no skip)
-gpgpu_perfect_mem                      0 # enable perfect memory mode (no cache miss)
-n_regfile_gating_group                    4 # group of lanes that should be read/written together)
-gpgpu_clock_gated_reg_file                    0 # enable clock gated reg file for power calculations
-gpgpu_clock_gated_lanes                    0 # enable clock gated lanes for power calculations
-gpgpu_shader_registers                32768 # Number of registers per shader core. Limits number of concurrent CTAs. (default 8192)
-gpgpu_registers_per_block                 8192 # Maximum number of registers per CTA. (default 8192)
-gpgpu_ignore_resources_limitation                    0 # gpgpu_ignore_resources_limitation (default 0)
-gpgpu_shader_cta                       8 # Maximum number of concurrent CTAs in shader (default 8)
-gpgpu_num_cta_barriers                   16 # Maximum number of named barriers per CTA (default 16)
-gpgpu_n_clusters                      15 # number of processing clusters
-gpgpu_n_cores_per_cluster                    1 # number of simd cores per cluster
-gpgpu_n_cluster_ejection_buffer_size                   32 # number of packets in ejection buffer
-gpgpu_n_ldst_response_buffer_size                    2 # number of response packets in ld/st unit ejection buffer
-gpgpu_shmem_per_block                49152 # Size of shared memory per thread block or CTA (default 48kB)
-gpgpu_shmem_size                   49152 # Size of shared memory per shader core (default 16kB)
-gpgpu_adaptive_cache_config                    0 # adaptive_cache_config
-gpgpu_shmem_sizeDefault                49152 # Size of shared memory per shader core (default 16kB)
-gpgpu_shmem_size_PrefL1                16384 # Size of shared memory per shader core (default 16kB)
-gpgpu_shmem_size_PrefShared                16384 # Size of shared memory per shader core (default 16kB)
-gpgpu_shmem_num_banks                   32 # Number of banks in the shared memory in each shader core (default 16)
-gpgpu_shmem_limited_broadcast                    0 # Limit shared memory to do one broadcast per cycle (default on)
-gpgpu_shmem_warp_parts                    1 # Number of portions a warp is divided into for shared memory bank conflict check 
-gpgpu_mem_unit_ports                    1 # The number of memory transactions allowed per core cycle
-gpgpu_shmem_warp_parts                    1 # Number of portions a warp is divided into for shared memory bank conflict check 
-gpgpu_warpdistro_shader                   -1 # Specify which shader core to collect the warp size distribution from
-gpgpu_warp_issue_shader                    0 # Specify which shader core to collect the warp issue distribution from
-gpgpu_local_mem_map                    1 # Mapping from local memory space address to simulated GPU physical address space (default = enabled)
-gpgpu_num_reg_banks                   16 # Number of register banks (default = 8)
-gpgpu_reg_bank_use_warp_id                    0 # Use warp ID in mapping registers to banks (default = off)
-gpgpu_sub_core_model                    0 # Sub Core Volta/Pascal model (default = off)
-gpgpu_enable_specialized_operand_collector                    1 # enable_specialized_operand_collector
-gpgpu_operand_collector_num_units_sp                    6 # number of collector units (default = 4)
-gpgpu_operand_collector_num_units_dp                    0 # number of collector units (default = 0)
-gpgpu_operand_collector_num_units_sfu                    8 # number of collector units (default = 4)
-gpgpu_operand_collector_num_units_int                    0 # number of collector units (default = 0)
-gpgpu_operand_collector_num_units_tensor_core                    4 # number of collector units (default = 4)
-gpgpu_operand_collector_num_units_mem                    2 # number of collector units (default = 2)
-gpgpu_operand_collector_num_units_gen                    0 # number of collector units (default = 0)
-gpgpu_operand_collector_num_in_ports_sp                    2 # number of collector unit in ports (default = 1)
-gpgpu_operand_collector_num_in_ports_dp                    0 # number of collector unit in ports (default = 0)
-gpgpu_operand_collector_num_in_ports_sfu                    1 # number of collector unit in ports (default = 1)
-gpgpu_operand_collector_num_in_ports_int                    0 # number of collector unit in ports (default = 0)
-gpgpu_operand_collector_num_in_ports_tensor_core                    1 # number of collector unit in ports (default = 1)
-gpgpu_operand_collector_num_in_ports_mem                    1 # number of collector unit in ports (default = 1)
-gpgpu_operand_collector_num_in_ports_gen                    0 # number of collector unit in ports (default = 0)
-gpgpu_operand_collector_num_out_ports_sp                    2 # number of collector unit in ports (default = 1)
-gpgpu_operand_collector_num_out_ports_dp                    0 # number of collector unit in ports (default = 0)
-gpgpu_operand_collector_num_out_ports_sfu                    1 # number of collector unit in ports (default = 1)
-gpgpu_operand_collector_num_out_ports_int                    0 # number of collector unit in ports (default = 0)
-gpgpu_operand_collector_num_out_ports_tensor_core                    1 # number of collector unit in ports (default = 1)
-gpgpu_operand_collector_num_out_ports_mem                    1 # number of collector unit in ports (default = 1)
-gpgpu_operand_collector_num_out_ports_gen                    0 # number of collector unit in ports (default = 0)
-gpgpu_coalesce_arch                   20 # Coalescing arch (GT200 = 13, Fermi = 20)
-gpgpu_num_sched_per_core                    2 # Number of warp schedulers per core
-gpgpu_max_insn_issue_per_warp                    1 # Max number of instructions that can be issued per warp in one cycle by scheduler (either 1 or 2)
-gpgpu_dual_issue_diff_exec_units                    1 # should dual issue use two different execution unit resources (Default = 1)
-gpgpu_simt_core_sim_order                    1 # Select the simulation order of cores in a cluster (0=Fix, 1=Round-Robin)
-gpgpu_pipeline_widths 2,0,0,1,1,2,0,0,1,1,2 # Pipeline widths ID_OC_SP,ID_OC_DP,ID_OC_INT,ID_OC_SFU,ID_OC_MEM,OC_EX_SP,OC_EX_DP,OC_EX_INT,OC_EX_SFU,OC_EX_MEM,EX_WB,ID_OC_TENSOR_CORE,OC_EX_TENSOR_CORE
-gpgpu_tensor_core_avail                    0 # Tensor Core Available (default=0)
-gpgpu_num_sp_units                     2 # Number of SP units (default=1)
-gpgpu_num_dp_units                     0 # Number of DP units (default=0)
-gpgpu_num_int_units                    0 # Number of INT units (default=0)
-gpgpu_num_sfu_units                    1 # Number of SF units (default=1)
-gpgpu_num_tensor_core_units                    0 # Number of tensor_core units (default=1)
-gpgpu_num_mem_units                    1 # Number if ldst units (default=1) WARNING: not hooked up to anything
-gpgpu_scheduler                      gto # Scheduler configuration: < lrr | gto | two_level_active > If two_level_active:<num_active_warps>:<inner_prioritization>:<outer_prioritization>For complete list of prioritization values see shader.h enum scheduler_prioritization_typeDefault: gto
-gpgpu_concurrent_kernel_sm                    0 # Support concurrent kernels on a SM (default = disabled)
-gpgpu_perfect_inst_const_cache                    0 # perfect inst and const cache mode, so all inst and const hits in the cache(default = disabled)
-gpgpu_inst_fetch_throughput                    1 # the number of fetched intruction per warp each cycle
-gpgpu_reg_file_port_throughput                    1 # the number ports of the register file
-specialized_unit_1         0,4,4,4,4,BRA # specialized unit config {<enabled>,<num_units>:<latency>:<initiation>,<ID_OC_SPEC>:<OC_EX_SPEC>,<NAME>}
-specialized_unit_2         0,4,4,4,4,BRA # specialized unit config {<enabled>,<num_units>:<latency>:<initiation>,<ID_OC_SPEC>:<OC_EX_SPEC>,<NAME>}
-specialized_unit_3         0,4,4,4,4,BRA # specialized unit config {<enabled>,<num_units>:<latency>:<initiation>,<ID_OC_SPEC>:<OC_EX_SPEC>,<NAME>}
-specialized_unit_4         0,4,4,4,4,BRA # specialized unit config {<enabled>,<num_units>:<latency>:<initiation>,<ID_OC_SPEC>:<OC_EX_SPEC>,<NAME>}
-specialized_unit_5         0,4,4,4,4,BRA # specialized unit config {<enabled>,<num_units>:<latency>:<initiation>,<ID_OC_SPEC>:<OC_EX_SPEC>,<NAME>}
-specialized_unit_6         0,4,4,4,4,BRA # specialized unit config {<enabled>,<num_units>:<latency>:<initiation>,<ID_OC_SPEC>:<OC_EX_SPEC>,<NAME>}
-specialized_unit_7         0,4,4,4,4,BRA # specialized unit config {<enabled>,<num_units>:<latency>:<initiation>,<ID_OC_SPEC>:<OC_EX_SPEC>,<NAME>}
-specialized_unit_8         0,4,4,4,4,BRA # specialized unit config {<enabled>,<num_units>:<latency>:<initiation>,<ID_OC_SPEC>:<OC_EX_SPEC>,<NAME>}
-gpgpu_perf_sim_memcpy                    1 # Fill the L2 cache on memcpy
-gpgpu_simple_dram_model                    0 # simple_dram_model with fixed latency and BW
-gpgpu_dram_scheduler                    1 # 0 = fifo, 1 = FR-FCFS (defaul)
-gpgpu_dram_partition_queues          64:64:64:64 # i2$:$2d:d2$:$2i
-l2_ideal                               0 # Use a ideal L2 cache that always hit
-gpgpu_cache:dl2     S:64:128:8,L:B:m:L:L,A:256:4,4:0,32 # unified banked L2 data cache config  {<nsets>:<bsize>:<assoc>,<rep>:<wr>:<alloc>:<wr_alloc>,<mshr>:<N>:<merge>,<mq>}
-gpgpu_cache:dl2_texture_only                    0 # L2 cache used for texture only
-gpgpu_n_mem                            6 # number of memory modules (e.g. memory controllers) in gpu
-gpgpu_n_sub_partition_per_mchannel                    2 # number of memory subpartition in each memory module
-gpgpu_n_mem_per_ctrlr                    2 # number of memory chips per memory controller
-gpgpu_memlatency_stat                   14 # track and display latency statistics 0x2 enables MC, 0x4 enables queue logs
-gpgpu_frfcfs_dram_sched_queue_size                   64 # 0 = unlimited (default); # entries per chip
-gpgpu_dram_return_queue_size                  116 # 0 = unlimited (default); # entries per chip
-gpgpu_dram_buswidth                    4 # default = 4 bytes (8 bytes per cycle at DDR)
-gpgpu_dram_burst_length                    8 # Burst length of each DRAM request (default = 4 data bus cycle)
-dram_data_command_freq_ratio                    4 # Frequency ratio between DRAM data bus and command bus (default = 2 times, i.e. DDR)
-gpgpu_dram_timing_opt nbk=16:CCD=2:RRD=6:RCD=12:RAS=28:RP=12:RC=40: CL=12:WL=4:CDLR=5:WR=12:nbkgrp=4:CCDL=3:RTPL=2 # DRAM timing parameters = {nbk:tCCD:tRRD:tRCD:tRAS:tRP:tRC:CL:WL:tCDLR:tWR:nbkgrp:tCCDL:tRTPL}
-gpgpu_l2_rop_latency                  120 # ROP queue latency (default 85)
-dram_latency                         100 # DRAM latency (default 30)
-dram_dual_bus_interface                    0 # dual_bus_interface (default = 0) 
-dram_bnk_indexing_policy                    0 # dram_bnk_indexing_policy (0 = normal indexing, 1 = Xoring with the higher bits) (Default = 0)
-dram_bnkgrp_indexing_policy                    1 # dram_bnkgrp_indexing_policy (0 = take higher bits, 1 = take lower bits) (Default = 0)
-dram_seperate_write_queue_enable                    0 # Seperate_Write_Queue_Enable
-dram_write_queue_size             32:28:16 # Write_Queue_Size
-dram_elimnate_rw_turnaround                    0 # elimnate_rw_turnaround i.e set tWTR and tRTW = 0
-icnt_flit_size                        40 # icnt_flit_size
-gpgpu_mem_addr_mapping dramid@8;00000000.00000000.00000000.00000000.0000RRRR.RRRRRRRR.BBBCCCCB.CCSSSSSS # mapping memory address to dram model {dramid@<start bit>;<memory address map>}
-gpgpu_mem_addr_test                    0 # run sweep test to check address mapping for aliased address
-gpgpu_mem_address_mask                    1 # 0 = old addressing mask, 1 = new addressing mask, 2 = new add. mask + flipped bank sel and chip sel bits
-gpgpu_memory_partition_indexing                    0 # 0 = no indexing, 1 = bitwise xoring, 2 = IPoly, 3 = custom indexing
-gpuwattch_xml_file  gpuwattch_gtx480.xml # GPUWattch XML file
-power_simulation_enabled                    1 # Turn on power simulator (1=On, 0=Off)
-power_per_cycle_dump                    0 # Dump detailed power output each cycle
-power_trace_enabled                    0 # produce a file for the power trace (1=On, 0=Off)
-power_trace_zlevel                     6 # Compression level of the power trace output log (0=no comp, 9=highest)
-steady_power_levels_enabled                    0 # produce a file for the steady power levels (1=On, 0=Off)
-steady_state_definition                  8:4 # allowed deviation:number of samples
-gpgpu_max_cycle                        0 # terminates gpu simulation early (0 = no limit)
-gpgpu_max_insn                         0 # terminates gpu simulation early (0 = no limit)
-gpgpu_max_cta                          0 # terminates gpu simulation early (0 = no limit)
-gpgpu_max_completed_cta                    0 # terminates gpu simulation early (0 = no limit)
-gpgpu_runtime_stat                   500 # display runtime statistics such as dram utilization {<freq>:<flag>}
-liveness_message_freq                    1 # Minimum number of seconds between simulation liveness messages (0 = always print)
-gpgpu_compute_capability_major                    2 # Major compute capability version number
-gpgpu_compute_capability_minor                    0 # Minor compute capability version number
-gpgpu_flush_l1_cache                    1 # Flush L1 cache at the end of each kernel call
-gpgpu_flush_l2_cache                    0 # Flush L2 cache at the end of each kernel call
-gpgpu_deadlock_detect                    1 # Stop the simulation at deadlock (1=on (default), 0=off)
-gpgpu_ptx_instruction_classification                    0 # if enabled will classify ptx instruction types per kernel (Max 255 kernels now)
-gpgpu_ptx_sim_mode                     0 # Select between Performance (default) or Functional simulation (1)
-gpgpu_clock_domains 300.0:300.0:1000.0:924.0 # Clock Domain Frequencies in MhZ {<Core Clock>:<ICNT Clock>:<L2 Clock>:<DRAM Clock>}
-gpgpu_max_concurrent_kernel                    8 # maximum kernels that can run concurrently on GPU
-gpgpu_cflog_interval                    0 # Interval between each snapshot in control flow logger
-visualizer_enabled                     0 # Turn on visualizer output (1=On, 0=Off)
-visualizer_outputfile                 NULL # Specifies the output log file for visualizer
-visualizer_zlevel                      6 # Compression level of the visualizer output log (0=no comp, 9=highest)
-gpgpu_stack_size_limit                 1024 # GPU thread stack size
-gpgpu_heap_size_limit              8388608 # GPU malloc heap size 
-gpgpu_runtime_sync_depth_limit                    2 # GPU device runtime synchronize depth
-gpgpu_runtime_pending_launch_count_limit                 2048 # GPU device runtime pending launch count
-trace_enabled                          0 # Turn on traces
-trace_components                    none # comma seperated list of traces to enable. Complete list found in trace_streams.tup. Default none
-trace_sampling_core                    0 # The core which is printed using CORE_DPRINTF. Default 0
-trace_sampling_memory_partition                   -1 # The memory partition which is printed using MEMPART_DPRINTF. Default -1 (i.e. all)
-enable_ptx_file_line_stats                    1 # Turn on PTX source line statistic profiling. (1 = On)
-ptx_line_stats_filename gpgpu_inst_stats.txt # Output file for PTX source line statistics.
-gpgpu_kernel_launch_latency                    0 # Kernel launch latency in cycles. Default: 0
-gpgpu_cdp_enabled                      0 # Turn on CDP
-gpgpu_TB_launch_latency                    0 # thread block launch latency in cycles. Default: 0
DRAM Timing Options:
nbk                                    16 # number of banks
CCD                                     2 # column to column delay
RRD                                     6 # minimal delay between activation of rows in different banks
RCD                                    12 # row to column delay
RAS                                    28 # time needed to activate row
RP                                     12 # time needed to precharge (deactivate) row
RC                                     40 # row cycle time
CDLR                                    5 # switching from write to read (changes tWTR)
WR                                     12 # last data-in to row precharge
CL                                     12 # CAS latency
WL                                      4 # Write latency
nbkgrp                                  4 # number of bank groups
CCDL                                    3 # column to column delay between accesses to different bank groups
RTPL                                    2 # read to precharge delay between accesses to different bank groups
Total number of memory sub partition = 12
addr_dec_mask[CHIP]  = 0000000000000000 	high:64 low:0
addr_dec_mask[BK]    = 000000000000e100 	high:16 low:8
addr_dec_mask[ROW]   = 000000000fff0000 	high:28 low:16
addr_dec_mask[COL]   = 0000000000001eff 	high:13 low:0
addr_dec_mask[BURST] = 000000000000003f 	high:6 low:0
sub_partition_id_mask = 0000000000000100
GPGPU-Sim uArch: clock freqs: 300000000.000000:300000000.000000:1000000000.000000:924000000.000000
GPGPU-Sim uArch: clock periods: 0.00000000333333333333:0.00000000333333333333:0.00000000100000000000:0.00000000108225108225
*** Initializing Memory Statistics ***
GPGPU-Sim uArch: interconnect node map (shaderID+MemID to icntID)
GPGPU-Sim uArch: Memory nodes ID start from index: 15
GPGPU-Sim uArch:    0   1   2   3   4
GPGPU-Sim uArch:    5   6   7   8   9
GPGPU-Sim uArch:   10  11  12  13  14
GPGPU-Sim uArch:   15  16  17  18  19
GPGPU-Sim uArch:   20  21  22  23  24
GPGPU-Sim uArch:   25  26
GPGPU-Sim uArch: interconnect node reverse map (icntID to shaderID+MemID)
GPGPU-Sim uArch: Memory nodes start from ID: 15
GPGPU-Sim uArch:    0   1   2   3   4
GPGPU-Sim uArch:    5   6   7   8   9
GPGPU-Sim uArch:   10  11  12  13  14
GPGPU-Sim uArch:   15  16  17  18  19
GPGPU-Sim uArch:   20  21  22  23  24
GPGPU-Sim uArch:   25  26
ebe5d78a7e7735a4d24d00f8ee6b8b64  /home/minigrim0/Documents/Lab_2/power_sim/updated_clocks/lud.gpu
Extracting PTX file and ptxas options    1: lud.1.sm_30.ptx -arch=sm_30
Extracting PTX file and ptxas options    2: lud.2.sm_30.ptx -arch=sm_30
GPGPU-Sim uArch: performance model initialization complete.
self exe links to: /home/minigrim0/Documents/Lab_2/power_sim/updated_clocks/lud.gpu
self exe links to: /home/minigrim0/Documents/Lab_2/power_sim/updated_clocks/lud.gpu
10.0
GPGPU-Sim PTX: __cudaRegisterFatBinary, fat_cubin_handle = 1, filename=default
self exe links to: /home/minigrim0/Documents/Lab_2/power_sim/updated_clocks/lud.gpu
Running md5sum using "md5sum /home/minigrim0/Documents/Lab_2/power_sim/updated_clocks/lud.gpu "
self exe links to: /home/minigrim0/Documents/Lab_2/power_sim/updated_clocks/lud.gpu
Extracting specific PTX file named lud.1.sm_30.ptx 
Extracting specific PTX file named lud.2.sm_30.ptx 
self exe links to: /home/minigrim0/Documents/Lab_2/power_sim/updated_clocks/lud.gpu
self exe links to: /home/minigrim0/Documents/Lab_2/power_sim/updated_clocks/lud.gpu
10.0
GPGPU-Sim PTX: __cudaRegisterFatBinary, fat_cubin_handle = 2, filename=default
GPGPU-Sim PTX: __cudaRegisterFunction _Z12lud_internalPfii : hostFun 0x0x564a661a7aec, fat_cubin_handle = 2
GPGPU-Sim PTX: Parsing lud.1.sm_30.ptx
GPGPU-Sim PTX: finished parsing EMBEDDED .ptx file lud.1.sm_30.ptx
GPGPU-Sim PTX: Parsing lud.2.sm_30.ptx
GPGPU-Sim PTX: allocating shared region for "_ZZ12lud_diagonalPfiiE6shadow" from 0x0 to 0x400 (shared memory space)
GPGPU-Sim PTX: instruction assembly for function '_Z12lud_diagonalPfii'...   done.
GPGPU-Sim PTX: allocating shared region for "_ZZ13lud_perimeterPfiiE3dia" from 0x0 to 0x400 (shared memory space)
GPGPU-Sim PTX: allocating shared region for "_ZZ13lud_perimeterPfiiE8peri_row" from 0x400 to 0x800 (shared memory space)
GPGPU-Sim PTX: allocating shared region for "_ZZ13lud_perimeterPfiiE8peri_col" from 0x800 to 0xc00 (shared memory space)
GPGPU-Sim PTX: instruction assembly for function '_Z13lud_perimeterPfii'...   done.
GPGPU-Sim PTX: allocating shared region for "_ZZ12lud_internalPfiiE8peri_row" from 0x0 to 0x400 (shared memory space)
GPGPU-Sim PTX: allocating shared region for "_ZZ12lud_internalPfiiE8peri_col" from 0x400 to 0x800 (shared memory space)
GPGPU-Sim PTX: instruction assembly for function '_Z12lud_internalPfii'...   done.
GPGPU-Sim PTX: finished parsing EMBEDDED .ptx file lud.2.sm_30.ptx
GPGPU-Sim PTX: loading globals with explicit initializers... 
GPGPU-Sim PTX: finished loading globals (0 bytes total).
GPGPU-Sim PTX: loading constants with explicit initializers...  done.
GPGPU-Sim PTX: Loading PTXInfo from lud.1.sm_30.ptx
GPGPU-Sim PTX: Loading PTXInfo from lud.2.sm_30.ptx
GPGPU-Sim PTX: Kernel '_Z12lud_internalPfii' : regs=22, lmem=0, smem=2048, cmem=336
GPGPU-Sim PTX: Kernel '_Z13lud_perimeterPfii' : regs=63, lmem=0, smem=3072, cmem=352
GPGPU-Sim PTX: Kernel '_Z12lud_diagonalPfii' : regs=48, lmem=0, smem=1024, cmem=352
GPGPU-Sim PTX: __cudaRegisterFunction _Z13lud_perimeterPfii : hostFun 0x0x564a661a7962, fat_cubin_handle = 2
GPGPU-Sim PTX: __cudaRegisterFunction _Z12lud_diagonalPfii : hostFun 0x0x564a661a77d8, fat_cubin_handle = 2
WG size of kernel = 16 X 16
Generate input matrix internally, size =512
Creating matrix internally size=512
Before LUD
GPGPU-Sim PTX: Setting up arguments for 8 bytes starting at 0x7ffc850327e8..
GPGPU-Sim PTX: Setting up arguments for 4 bytes starting at 0x7ffc850327e4..
GPGPU-Sim PTX: Setting up arguments for 4 bytes starting at 0x7ffc850327e0..

GPGPU-Sim PTX: cudaLaunch for 0x0x564a661a77d8 (mode=performance simulation) on stream 0
GPGPU-Sim PTX: finding reconvergence points for '_Z12lud_diagonalPfii'...
GPGPU-Sim PTX: Finding dominators for '_Z12lud_diagonalPfii'...
GPGPU-Sim PTX: Finding immediate dominators for '_Z12lud_diagonalPfii'...
GPGPU-Sim PTX: Finding postdominators for '_Z12lud_diagonalPfii'...
GPGPU-Sim PTX: Finding immediate postdominators for '_Z12lud_diagonalPfii'...
GPGPU-Sim PTX: pre-decoding instructions for '_Z12lud_diagonalPfii'...
GPGPU-Sim PTX: reconvergence points for _Z12lud_diagonalPfii...
GPGPU-Sim PTX:  1 (potential) branch divergence @  PC=0x2e0 (lud.2.sm_30.ptx:128) @%p2 bra BB0_6;
GPGPU-Sim PTX:    immediate post dominator      @  PC=0x3b0 (lud.2.sm_30.ptx:162) setp.gt.u32%p1, %r1, %r89;
GPGPU-Sim PTX:  2 (potential) branch divergence @  PC=0x318 (lud.2.sm_30.ptx:136) @%p3 bra BB0_5;
GPGPU-Sim PTX:    immediate post dominator      @  PC=0x380 (lud.2.sm_30.ptx:154) shl.b32 %r55, %r89, 6;
GPGPU-Sim PTX:  3 (potential) branch divergence @  PC=0x378 (lud.2.sm_30.ptx:151) @%p4 bra BB0_4;
GPGPU-Sim PTX:    immediate post dominator      @  PC=0x380 (lud.2.sm_30.ptx:154) shl.b32 %r55, %r89, 6;
GPGPU-Sim PTX:  4 (potential) branch divergence @  PC=0x3d8 (lud.2.sm_30.ptx:167) @!%p6 bra BB0_9;
GPGPU-Sim PTX:    immediate post dominator      @  PC=0x488 (lud.2.sm_30.ptx:195) bar.sync 0;
GPGPU-Sim PTX:  5 (potential) branch divergence @  PC=0x3e0 (lud.2.sm_30.ptx:168) bra.uni BB0_7;
GPGPU-Sim PTX:    immediate post dominator      @  PC=0x3e8 (lud.2.sm_30.ptx:171) shl.b32 %r88, %r1, 2;
GPGPU-Sim PTX:  6 (potential) branch divergence @  PC=0x480 (lud.2.sm_30.ptx:192) @%p7 bra BB0_8;
GPGPU-Sim PTX:    immediate post dominator      @  PC=0x488 (lud.2.sm_30.ptx:195) bar.sync 0;
GPGPU-Sim PTX:  7 (potential) branch divergence @  PC=0x4a0 (lud.2.sm_30.ptx:198) @%p8 bra BB0_1;
GPGPU-Sim PTX:    immediate post dominator      @  PC=0x4a8 (lud.2.sm_30.ptx:200) ld.param.u64 %rd55, [_Z12lud_diagonalPfii_param_0];
GPGPU-Sim PTX: ... end of reconvergence points for _Z12lud_diagonalPfii
GPGPU-Sim PTX: ... done pre-decoding instructions for '_Z12lud_diagonalPfii'.
GPGPU-Sim PTX: pushing kernel '_Z12lud_diagonalPfii' to stream 0, gridDim= (1,1,1) blockDim = (16,1,1) 
GPGPU-Sim uArch: Shader 0 bind to kernel 1 '_Z12lud_diagonalPfii'
GPGPU-Sim uArch: CTA/core = 8, limited by: cta_limit
Destroy streams for kernel 1: size 0
kernel_name = _Z12lud_diagonalPfii 
kernel_launch_uid = 1 
gpu_sim_cycle = 29542
gpu_sim_insn = 19880
gpu_ipc =       0.6729
gpu_tot_sim_cycle = 29542
gpu_tot_sim_insn = 19880
gpu_tot_ipc =       0.6729
gpu_tot_issued_cta = 1
gpu_occupancy = 2.0833% 
gpu_tot_occupancy = 2.0833% 
max_total_param_size = 0
gpu_stall_dramfull = 0
gpu_stall_icnt2sh    = 0
partiton_level_parallism =       0.0015
partiton_level_parallism_total  =       0.0015
partiton_level_parallism_util =       1.0000
partiton_level_parallism_util_total  =       1.0000
L2_BW  =       0.0468 GB/Sec
L2_BW_total  =       0.0468 GB/Sec
gpu_total_sim_rate=6626

========= Core cache stats =========
L1I_cache:
	L1I_total_cache_accesses = 1672
	L1I_total_cache_misses = 12
	L1I_total_cache_miss_rate = 0.0072
	L1I_total_cache_pending_hits = 0
	L1I_total_cache_reservation_fails = 0
L1D_cache:
	L1D_cache_core[0]: Access = 31, Miss = 16, Miss_rate = 0.516, Pending_hits = 0, Reservation_fails = 0
	L1D_cache_core[1]: Access = 0, Miss = 0, Miss_rate = -nan, Pending_hits = 0, Reservation_fails = 0
	L1D_cache_core[2]: Access = 0, Miss = 0, Miss_rate = -nan, Pending_hits = 0, Reservation_fails = 0
	L1D_cache_core[3]: Access = 0, Miss = 0, Miss_rate = -nan, Pending_hits = 0, Reservation_fails = 0
	L1D_cache_core[4]: Access = 0, Miss = 0, Miss_rate = -nan, Pending_hits = 0, Reservation_fails = 0
	L1D_cache_core[5]: Access = 0, Miss = 0, Miss_rate = -nan, Pending_hits = 0, Reservation_fails = 0
	L1D_cache_core[6]: Access = 0, Miss = 0, Miss_rate = -nan, Pending_hits = 0, Reservation_fails = 0
	L1D_cache_core[7]: Access = 0, Miss = 0, Miss_rate = -nan, Pending_hits = 0, Reservation_fails = 0
	L1D_cache_core[8]: Access = 0, Miss = 0, Miss_rate = -nan, Pending_hits = 0, Reservation_fails = 0
	L1D_cache_core[9]: Access = 0, Miss = 0, Miss_rate = -nan, Pending_hits = 0, Reservation_fails = 0
	L1D_cache_core[10]: Access = 0, Miss = 0, Miss_rate = -nan, Pending_hits = 0, Reservation_fails = 0
	L1D_cache_core[11]: Access = 0, Miss = 0, Miss_rate = -nan, Pending_hits = 0, Reservation_fails = 0
	L1D_cache_core[12]: Access = 0, Miss = 0, Miss_rate = -nan, Pending_hits = 0, Reservation_fails = 0
	L1D_cache_core[13]: Access = 0, Miss = 0, Miss_rate = -nan, Pending_hits = 0, Reservation_fails = 0
	L1D_cache_core[14]: Access = 0, Miss = 0, Miss_rate = -nan, Pending_hits = 0, Reservation_fails = 0
	L1D_total_cache_accesses = 31
	L1D_total_cache_misses = 16
	L1D_total_cache_miss_rate = 0.5161
	L1D_total_cache_pending_hits = 0
	L1D_total_cache_reservation_fails = 0
	L1D_cache_data_port_util = 0.001
	L1D_cache_fill_port_util = 0.001
L1C_cache:
	L1C_total_cache_accesses = 6
	L1C_total_cache_misses = 3
	L1C_total_cache_miss_rate = 0.5000
	L1C_total_cache_pending_hits = 0
	L1C_total_cache_reservation_fails = 0
L1T_cache:
	L1T_total_cache_accesses = 0
	L1T_total_cache_misses = 0
	L1T_total_cache_pending_hits = 0
	L1T_total_cache_reservation_fails = 0

Total_core_cache_stats:
	Total_core_cache_stats_breakdown[GLOBAL_ACC_R][HIT] = 0
	Total_core_cache_stats_breakdown[GLOBAL_ACC_R][HIT_RESERVED] = 0
	Total_core_cache_stats_breakdown[GLOBAL_ACC_R][MISS] = 16
	Total_core_cache_stats_breakdown[GLOBAL_ACC_R][RESERVATION_FAIL] = 0
	Total_core_cache_stats_breakdown[GLOBAL_ACC_R][SECTOR_MISS] = 0
	Total_core_cache_stats_breakdown[LOCAL_ACC_R][HIT] = 0
	Total_core_cache_stats_breakdown[LOCAL_ACC_R][HIT_RESERVED] = 0
	Total_core_cache_stats_breakdown[LOCAL_ACC_R][MISS] = 0
	Total_core_cache_stats_breakdown[LOCAL_ACC_R][RESERVATION_FAIL] = 0
	Total_core_cache_stats_breakdown[LOCAL_ACC_R][SECTOR_MISS] = 0
	Total_core_cache_stats_breakdown[CONST_ACC_R][HIT] = 3
	Total_core_cache_stats_breakdown[CONST_ACC_R][HIT_RESERVED] = 0
	Total_core_cache_stats_breakdown[CONST_ACC_R][MISS] = 3
	Total_core_cache_stats_breakdown[CONST_ACC_R][RESERVATION_FAIL] = 0
	Total_core_cache_stats_breakdown[CONST_ACC_R][SECTOR_MISS] = 0
	Total_core_cache_stats_breakdown[TEXTURE_ACC_R][HIT] = 0
	Total_core_cache_stats_breakdown[TEXTURE_ACC_R][HIT_RESERVED] = 0
	Total_core_cache_stats_breakdown[TEXTURE_ACC_R][MISS] = 0
	Total_core_cache_stats_breakdown[TEXTURE_ACC_R][RESERVATION_FAIL] = 0
	Total_core_cache_stats_breakdown[TEXTURE_ACC_R][SECTOR_MISS] = 0
	Total_core_cache_stats_breakdown[GLOBAL_ACC_W][HIT] = 15
	Total_core_cache_stats_breakdown[GLOBAL_ACC_W][HIT_RESERVED] = 0
	Total_core_cache_stats_breakdown[GLOBAL_ACC_W][MISS] = 0
	Total_core_cache_stats_breakdown[GLOBAL_ACC_W][RESERVATION_FAIL] = 0
	Total_core_cache_stats_breakdown[GLOBAL_ACC_W][SECTOR_MISS] = 0
	Total_core_cache_stats_breakdown[LOCAL_ACC_W][HIT] = 0
	Total_core_cache_stats_breakdown[LOCAL_ACC_W][HIT_RESERVED] = 0
	Total_core_cache_stats_breakdown[LOCAL_ACC_W][MISS] = 0
	Total_core_cache_stats_breakdown[LOCAL_ACC_W][RESERVATION_FAIL] = 0
	Total_core_cache_stats_breakdown[LOCAL_ACC_W][SECTOR_MISS] = 0
	Total_core_cache_stats_breakdown[L1_WRBK_ACC][HIT] = 0
	Total_core_cache_stats_breakdown[L1_WRBK_ACC][HIT_RESERVED] = 0
	Total_core_cache_stats_breakdown[L1_WRBK_ACC][MISS] = 0
	Total_core_cache_stats_breakdown[L1_WRBK_ACC][RESERVATION_FAIL] = 0
	Total_core_cache_stats_breakdown[L1_WRBK_ACC][SECTOR_MISS] = 0
	Total_core_cache_stats_breakdown[L2_WRBK_ACC][HIT] = 0
	Total_core_cache_stats_breakdown[L2_WRBK_ACC][HIT_RESERVED] = 0
	Total_core_cache_stats_breakdown[L2_WRBK_ACC][MISS] = 0
	Total_core_cache_stats_breakdown[L2_WRBK_ACC][RESERVATION_FAIL] = 0
	Total_core_cache_stats_breakdown[L2_WRBK_ACC][SECTOR_MISS] = 0
	Total_core_cache_stats_breakdown[INST_ACC_R][HIT] = 1660
	Total_core_cache_stats_breakdown[INST_ACC_R][HIT_RESERVED] = 0
	Total_core_cache_stats_breakdown[INST_ACC_R][MISS] = 12
	Total_core_cache_stats_breakdown[INST_ACC_R][RESERVATION_FAIL] = 0
	Total_core_cache_stats_breakdown[INST_ACC_R][SECTOR_MISS] = 0
	Total_core_cache_stats_breakdown[L1_WR_ALLOC_R][HIT] = 0
	Total_core_cache_stats_breakdown[L1_WR_ALLOC_R][HIT_RESERVED] = 0
	Total_core_cache_stats_breakdown[L1_WR_ALLOC_R][MISS] = 0
	Total_core_cache_stats_breakdown[L1_WR_ALLOC_R][RESERVATION_FAIL] = 0
	Total_core_cache_stats_breakdown[L1_WR_ALLOC_R][SECTOR_MISS] = 0
	Total_core_cache_stats_breakdown[L2_WR_ALLOC_R][HIT] = 0
	Total_core_cache_stats_breakdown[L2_WR_ALLOC_R][HIT_RESERVED] = 0
	Total_core_cache_stats_breakdown[L2_WR_ALLOC_R][MISS] = 0
	Total_core_cache_stats_breakdown[L2_WR_ALLOC_R][RESERVATION_FAIL] = 0
	Total_core_cache_stats_breakdown[L2_WR_ALLOC_R][SECTOR_MISS] = 0
	Total_core_cache_stats_breakdown[GLOBAL_ACC_R][TOTAL_ACCESS] = 16
	Total_core_cache_stats_breakdown[CONST_ACC_R][TOTAL_ACCESS] = 6
	Total_core_cache_stats_breakdown[GLOBAL_ACC_W][TOTAL_ACCESS] = 15
	Total_core_cache_stats_breakdown[INST_ACC_R][TOTAL_ACCESS] = 1672

Total_core_cache_fail_stats:
ctas_completed 1, Shader 0 warp_id issue ditsribution:
warp_id:
0, 
distro:
2949, 
gpgpu_n_tot_thrd_icount = 94368
gpgpu_n_tot_w_icount = 2949
gpgpu_n_stall_shd_mem = 504
gpgpu_n_mem_read_local = 0
gpgpu_n_mem_write_local = 0
gpgpu_n_mem_read_global = 16
gpgpu_n_mem_write_global = 15
gpgpu_n_mem_texture = 0
gpgpu_n_mem_const = 1
gpgpu_n_load_insn  = 256
gpgpu_n_store_insn = 240
gpgpu_n_shmem_insn = 4696
gpgpu_n_sstarr_insn = 0
gpgpu_n_tex_insn = 0
gpgpu_n_const_mem_insn = 0
gpgpu_n_param_mem_insn = 96
gpgpu_n_shmem_bkconflict = 0
gpgpu_n_cache_bkconflict = 0
gpgpu_n_intrawarp_mshr_merge = 0
gpgpu_n_cmem_portconflict = 0
gpgpu_stall_shd_mem[c_mem][resource_stall] = 0
gpgpu_stall_shd_mem[s_mem][bk_conf] = 504
gpgpu_stall_shd_mem[gl_mem][resource_stall] = 0
gpgpu_stall_shd_mem[gl_mem][coal_stall] = 0
gpgpu_stall_shd_mem[gl_mem][data_port_stall] = 0
gpu_reg_bank_conflict_stalls = 0
Warp Occupancy Distribution:
Stall:0	W0_Idle:34549	W0_Scoreboard:21584	W1:316	W2:296	W3:276	W4:256	W5:236	W6:216	W7:196	W8:176	W9:156	W10:136	W11:116	W12:96	W13:76	W14:56	W15:34	W16:311	W17:0	W18:0	W19:0	W20:0	W21:0	W22:0	W23:0	W24:0	W25:0	W26:0	W27:0	W28:0	W29:0	W30:0	W31:0	W32:0
single_issue_nums: WS0:2949	WS1:0	
dual_issue_nums: WS0:0	WS1:0	
traffic_breakdown_coretomem[CONST_ACC_R] = 8 {8:1,}
traffic_breakdown_coretomem[GLOBAL_ACC_R] = 128 {8:16,}
traffic_breakdown_coretomem[GLOBAL_ACC_W] = 1080 {72:15,}
traffic_breakdown_coretomem[INST_ACC_R] = 96 {8:12,}
traffic_breakdown_memtocore[CONST_ACC_R] = 80 {40:2,}
traffic_breakdown_memtocore[GLOBAL_ACC_R] = 2560 {40:64,}
traffic_breakdown_memtocore[GLOBAL_ACC_W] = 240 {8:30,}
traffic_breakdown_memtocore[INST_ACC_R] = 1920 {40:48,}
maxmflatency = 243 
max_icnt2mem_latency = 50 
maxmrqlatency = 9 
max_icnt2sh_latency = 7 
averagemflatency = 223 
avg_icnt2mem_latency = 20 
avg_mrq_latency = 1 
avg_icnt2sh_latency = 9 
mrq_lat_table:81 	6 	20 	7 	0 	0 	0 	0 	0 	0 	0 	0 	0 	0 	0 	0 	0 	0 	0 	0 	0 	0 	0 	0 	0 	0 	0 	0 	0 	0 	0 	0 	
dq_lat_table:0 	0 	0 	0 	0 	0 	0 	0 	0 	0 	0 	0 	0 	0 	0 	0 	0 	0 	0 	0 	0 	0 	0 	0 	0 	0 	0 	0 	0 	0 	0 	0 	
mf_lat_table:0 	0 	0 	0 	0 	0 	15 	81 	0 	0 	0 	0 	0 	0 	0 	0 	0 	0 	0 	0 	0 	0 	0 	0 	0 	0 	0 	0 	0 	0 	0 	0 	
icnt2mem_lat_table:0 	0 	12 	1 	0 	31 	0 	0 	0 	0 	0 	0 	0 	0 	0 	0 	0 	0 	0 	0 	0 	0 	0 	0 	
icnt2sh_lat_table:0 	0 	96 	0 	0 	0 	0 	0 	0 	0 	0 	0 	0 	0 	0 	0 	0 	0 	0 	0 	0 	0 	0 	0 	
mf_lat_pw_table:0 	0 	0 	0 	0 	0 	1 	12 	0 	0 	0 	0 	0 	0 	0 	0 	0 	0 	0 	0 	0 	0 	0 	0 	0 	0 	0 	0 	0 	0 	0 	0 	
maximum concurrent accesses to same row:
dram[0]:         6         0         0         0         0         0         0         0         0         0         0         0         0         0         0         0 
dram[1]:         0         0         0         0         0         0         0         0         0         0         0         0         0         0         0         0 
dram[2]:         0         0         0         0         0         0         0         0         0         0         0         0         0         0         0         0 
dram[3]:         0         0         0         0         0         0         0         0         0         0         0         0         0         0         0         0 
dram[4]:        20         0         0         0         0         0         0         0         0         0         0         0         0         0         0         0 
dram[5]:         0         0         0         0         0         0         0         0         0         0         0         0         0         0         0         0 
maximum service time to same row:
dram[0]:       941         0         0         0         0         0         0         0         0         0         0         0         0         0         0         0 
dram[1]:      2284         0         0         0         0         0         0         0         0         0         0         0         0         0         0         0 
dram[2]:      4711         0         0         0         0         0         0         0         0         0         0         0         0         0         0         0 
dram[3]:      6799         0         0         0         0         0         0         0         0         0         0         0         0         0         0         0 
dram[4]:      7447         0         0         0         0         0         0         0         0         0         0         0         0         0         0         0 
dram[5]:     29048         0         0         0         0         0         0         0         0         0         0         0         0         0         0         0 
average row accesses per activate:
dram[0]:  8.500000      -nan      -nan      -nan      -nan      -nan      -nan      -nan      -nan      -nan      -nan      -nan      -nan      -nan      -nan      -nan 
dram[1]:  8.000000      -nan      -nan      -nan      -nan      -nan      -nan      -nan      -nan      -nan      -nan      -nan      -nan      -nan      -nan      -nan 
dram[2]:  8.000000       inf      -nan      -nan      -nan      -nan      -nan      -nan      -nan      -nan      -nan      -nan      -nan      -nan      -nan      -nan 
dram[3]:  8.000000      -nan      -nan      -nan      -nan      -nan      -nan      -nan      -nan      -nan      -nan      -nan      -nan      -nan      -nan      -nan 
dram[4]: 28.000000      -nan      -nan      -nan      -nan      -nan      -nan      -nan      -nan      -nan      -nan      -nan      -nan      -nan      -nan      -nan 
dram[5]:  8.000000      -nan      -nan      -nan      -nan      -nan      -nan      -nan      -nan      -nan      -nan      -nan      -nan      -nan      -nan      -nan 
average row locality = 114/9 = 12.666667
number of total memory accesses made:
dram[0]:         0         0         0         0         0         0         0         0         0         0         0         0         0         0         0         0 
dram[1]:         0         0         0         0         0         0         0         0         0         0         0         0         0         0         0         0 
dram[2]:         0         0         0         0         0         0         0         0         0         0         0         0         0         0         0         0 
dram[3]:         0         0         0         0         0         0         0         0         0         0         0         0         0         0         0         0 
dram[4]:         0         0         0         0         0         0         0         0         0         0         0         0         0         0         0         0 
dram[5]:         0         0         0         0         0         0         0         0         0         0         0         0         0         0         0         0 
total accesses: 0
min_bank_accesses = 0!
min_chip_accesses = 0!
number of total read accesses:
dram[0]:         0         0         0         0         0         0         0         0         0         0         0         0         0         0         0         0 
dram[1]:         0         0         0         0         0         0         0         0         0         0         0         0         0         0         0         0 
dram[2]:         0         0         0         0         0         0         0         0         0         0         0         0         0         0         0         0 
dram[3]:         0         0         0         0         0         0         0         0         0         0         0         0         0         0         0         0 
dram[4]:         0         0         0         0         0         0         0         0         0         0         0         0         0         0         0         0 
dram[5]:         0         0         0         0         0         0         0         0         0         0         0         0         0         0         0         0 
total dram reads = 0
min_bank_accesses = 0!
min_chip_accesses = 0!
number of total write accesses:
dram[0]:         0         0         0         0         0         0         0         0         0         0         0         0         0         0         0         0 
dram[1]:         0         0         0         0         0         0         0         0         0         0         0         0         0         0         0         0 
dram[2]:         0         0         0         0         0         0         0         0         0         0         0         0         0         0         0         0 
dram[3]:         0         0         0         0         0         0         0         0         0         0         0         0         0         0         0         0 
dram[4]:         0         0         0         0         0         0         0         0         0         0         0         0         0         0         0         0 
dram[5]:         0         0         0         0         0         0         0         0         0         0         0         0         0         0         0         0 
total dram writes = 0
min_bank_accesses = 0!
min_chip_accesses = 0!
average mf latency per bank:
dram[0]:     none      none      none      none      none      none      none      none      none      none      none      none      none      none      none      none  
dram[1]:     none      none      none      none      none      none      none      none      none      none      none      none      none      none      none      none  
dram[2]:     none      none      none      none      none      none      none      none      none      none      none      none      none      none      none      none  
dram[3]:     none      none      none      none      none      none      none      none      none      none      none      none      none      none      none      none  
dram[4]:     none      none      none      none      none      none      none      none      none      none      none      none      none      none      none      none  
dram[5]:     none      none      none      none      none      none      none      none      none      none      none      none      none      none      none      none  
maximum mf latency per bank:
dram[0]:        243         0         0         0         0         0         0         0         0         0         0         0         0         0         0         0
dram[1]:          0         0         0         0         0         0         0         0         0         0         0         0         0         0         0         0
dram[2]:          0       238         0         0         0         0         0         0         0         0         0         0         0         0         0         0
dram[3]:          0         0         0         0         0         0         0         0         0         0         0         0         0         0         0         0
dram[4]:        239         0         0         0         0         0         0         0         0         0         0         0         0         0         0         0
dram[5]:          0         0         0         0         0         0         0         0         0         0         0         0         0         0         0         0
Memory Partition 0: 
Cache L2_bank_000:
MSHR contents

Cache L2_bank_001:
MSHR contents

In Dram Latency Queue (total = 0): 
DRAM[0]: 16 bks, busW=4 BL=8 CL=12, tRRD=6 tCCD=2, tRCD=12 tRAS=28 tRP=12 tRC=40
n_cmd=90987 n_nop=90946 n_act=4 n_pre=3 n_ref_event=94877550480976 n_req=34 n_rd=34 n_rd_L2_A=0 n_write=0 n_wr_bk=0 bw_util=0.0007474
n_activity=301 dram_eff=0.2259
bk0: 34a 90859i bk1: 0a 90984i bk2: 0a 90984i bk3: 0a 90984i bk4: 0a 90984i bk5: 0a 90986i bk6: 0a 90986i bk7: 0a 90987i bk8: 0a 90987i bk9: 0a 90987i bk10: 0a 90987i bk11: 0a 90988i bk12: 0a 90988i bk13: 0a 90990i bk14: 0a 90990i bk15: 0a 90990i 

------------------------------------------------------------------------

Row_Buffer_Locality = 0.882353
Row_Buffer_Locality_read = 0.882353
Row_Buffer_Locality_write = -nan
Bank_Level_Parallism = 1.000000
Bank_Level_Parallism_Col = 0.677647
Bank_Level_Parallism_Ready = 1.000000
write_to_read_ratio_blp_rw_average = 0.000000
GrpLevelPara = 0.000000 

BW Util details:
bwutil = 0.000747 
total_CMD = 90987 
util_bw = 68 
Wasted_Col = 70 
Wasted_Row = 36 
Idle = 90813 

BW Util Bottlenecks: 
RCDc_limit = 48 
RCDWRc_limit = 0 
WTRc_limit = 0 
RTWc_limit = 0 
CCDLc_limit = 22 
rwq = 0 
CCDLc_limit_alone = 22 
WTRc_limit_alone = 0 
RTWc_limit_alone = 0 

Commands details: 
total_CMD = 90987 
n_nop = 90946 
Read = 34 
Write = 0 
L2_Alloc = 0 
L2_WB = 0 
n_act = 4 
n_pre = 3 
n_ref = 94877550480976 
n_req = 34 
total_req = 34 

Dual Bus Interface Util: 
issued_total_row = 7 
issued_total_col = 34 
Row_Bus_Util =  0.000077 
CoL_Bus_Util = 0.000374 
Either_Row_CoL_Bus_Util = 0.000451 
Issued_on_Two_Bus_Simul_Util = 0.000000 
issued_two_Eff = 0.000000 
queue_avg = 0.002462 


dram_util_bins: 0 0 0 0 0 0 0 0 0 0
dram_eff_bins: 0 0 0 0 0 0 0 0 0 0
mrqq: max=3 avg=0.00246189
Memory Partition 1: 
Cache L2_bank_002:
MSHR contents

Cache L2_bank_003:
MSHR contents

In Dram Latency Queue (total = 0): 
DRAM[1]: 16 bks, busW=4 BL=8 CL=12, tRRD=6 tCCD=2, tRCD=12 tRAS=28 tRP=12 tRC=40
n_cmd=90987 n_nop=90978 n_act=1 n_pre=0 n_ref_event=94877551327344 n_req=8 n_rd=8 n_rd_L2_A=0 n_write=0 n_wr_bk=0 bw_util=0.0001758
n_activity=61 dram_eff=0.2623
bk0: 8a 90965i bk1: 0a 90987i bk2: 0a 90987i bk3: 0a 90987i bk4: 0a 90987i bk5: 0a 90987i bk6: 0a 90987i bk7: 0a 90987i bk8: 0a 90987i bk9: 0a 90987i bk10: 0a 90987i bk11: 0a 90987i bk12: 0a 90987i bk13: 0a 90987i bk14: 0a 90987i bk15: 0a 90987i 

------------------------------------------------------------------------

Row_Buffer_Locality = 0.875000
Row_Buffer_Locality_read = 0.875000
Row_Buffer_Locality_write = -nan
Bank_Level_Parallism = 1.000000
Bank_Level_Parallism_Col = 1.000000
Bank_Level_Parallism_Ready = 1.000000
write_to_read_ratio_blp_rw_average = 0.000000
GrpLevelPara = 1.000000 

BW Util details:
bwutil = 0.000176 
total_CMD = 90987 
util_bw = 16 
Wasted_Col = 17 
Wasted_Row = 0 
Idle = 90954 

BW Util Bottlenecks: 
RCDc_limit = 12 
RCDWRc_limit = 0 
WTRc_limit = 0 
RTWc_limit = 0 
CCDLc_limit = 5 
rwq = 0 
CCDLc_limit_alone = 5 
WTRc_limit_alone = 0 
RTWc_limit_alone = 0 

Commands details: 
total_CMD = 90987 
n_nop = 90978 
Read = 8 
Write = 0 
L2_Alloc = 0 
L2_WB = 0 
n_act = 1 
n_pre = 0 
n_ref = 94877551327344 
n_req = 8 
total_req = 8 

Dual Bus Interface Util: 
issued_total_row = 1 
issued_total_col = 8 
Row_Bus_Util =  0.000011 
CoL_Bus_Util = 0.000088 
Either_Row_CoL_Bus_Util = 0.000099 
Issued_on_Two_Bus_Simul_Util = 0.000000 
issued_two_Eff = 0.000000 
queue_avg = 0.000484 


dram_util_bins: 0 0 0 0 0 0 0 0 0 0
dram_eff_bins: 0 0 0 0 0 0 0 0 0 0
mrqq: max=3 avg=0.000483586
Memory Partition 2: 
Cache L2_bank_004:
MSHR contents

Cache L2_bank_005:
MSHR contents

In Dram Latency Queue (total = 0): 
DRAM[2]: 16 bks, busW=4 BL=8 CL=12, tRRD=6 tCCD=2, tRCD=12 tRAS=28 tRP=12 tRC=40
n_cmd=90987 n_nop=90957 n_act=2 n_pre=0 n_ref_event=0 n_req=28 n_rd=28 n_rd_L2_A=0 n_write=0 n_wr_bk=0 bw_util=0.0006155
n_activity=185 dram_eff=0.3027
bk0: 8a 90965i bk1: 20a 90950i bk2: 0a 90986i bk3: 0a 90987i bk4: 0a 90987i bk5: 0a 90987i bk6: 0a 90987i bk7: 0a 90987i bk8: 0a 90987i bk9: 0a 90987i bk10: 0a 90987i bk11: 0a 90987i bk12: 0a 90987i bk13: 0a 90987i bk14: 0a 90987i bk15: 0a 90987i 

------------------------------------------------------------------------

Row_Buffer_Locality = 0.964286
Row_Buffer_Locality_read = 0.964286
Row_Buffer_Locality_write = -nan
Bank_Level_Parallism = 1.000000
Bank_Level_Parallism_Col = 0.984834
Bank_Level_Parallism_Ready = 1.000000
write_to_read_ratio_blp_rw_average = 0.000000
GrpLevelPara = 0.000000 

BW Util details:
bwutil = 0.000615 
total_CMD = 90987 
util_bw = 56 
Wasted_Col = 41 
Wasted_Row = 0 
Idle = 90890 

BW Util Bottlenecks: 
RCDc_limit = 24 
RCDWRc_limit = 0 
WTRc_limit = 0 
RTWc_limit = 0 
CCDLc_limit = 17 
rwq = 0 
CCDLc_limit_alone = 17 
WTRc_limit_alone = 0 
RTWc_limit_alone = 0 

Commands details: 
total_CMD = 90987 
n_nop = 90957 
Read = 28 
Write = 0 
L2_Alloc = 0 
L2_WB = 0 
n_act = 2 
n_pre = 0 
n_ref = 0 
n_req = 28 
total_req = 28 

Dual Bus Interface Util: 
issued_total_row = 2 
issued_total_col = 28 
Row_Bus_Util =  0.000022 
CoL_Bus_Util = 0.000308 
Either_Row_CoL_Bus_Util = 0.000330 
Issued_on_Two_Bus_Simul_Util = 0.000000 
issued_two_Eff = 0.000000 
queue_avg = 0.001011 


dram_util_bins: 0 0 0 0 0 0 0 0 0 0
dram_eff_bins: 0 0 0 0 0 0 0 0 0 0
mrqq: max=3 avg=0.00101113
Memory Partition 3: 
Cache L2_bank_006:
MSHR contents

Cache L2_bank_007:
MSHR contents

In Dram Latency Queue (total = 0): 
DRAM[3]: 16 bks, busW=4 BL=8 CL=12, tRRD=6 tCCD=2, tRCD=12 tRAS=28 tRP=12 tRC=40
n_cmd=90987 n_nop=90978 n_act=1 n_pre=0 n_ref_event=0 n_req=8 n_rd=8 n_rd_L2_A=0 n_write=0 n_wr_bk=0 bw_util=0.0001758
n_activity=61 dram_eff=0.2623
bk0: 8a 90963i bk1: 0a 90987i bk2: 0a 90987i bk3: 0a 90987i bk4: 0a 90987i bk5: 0a 90987i bk6: 0a 90987i bk7: 0a 90987i bk8: 0a 90987i bk9: 0a 90987i bk10: 0a 90987i bk11: 0a 90987i bk12: 0a 90987i bk13: 0a 90987i bk14: 0a 90987i bk15: 0a 90987i 

------------------------------------------------------------------------

Row_Buffer_Locality = 0.875000
Row_Buffer_Locality_read = 0.875000
Row_Buffer_Locality_write = -nan
Bank_Level_Parallism = 1.000000
Bank_Level_Parallism_Col = 1.000000
Bank_Level_Parallism_Ready = 1.000000
write_to_read_ratio_blp_rw_average = 0.000000
GrpLevelPara = 1.000000 

BW Util details:
bwutil = 0.000176 
total_CMD = 90987 
util_bw = 16 
Wasted_Col = 18 
Wasted_Row = 0 
Idle = 90953 

BW Util Bottlenecks: 
RCDc_limit = 12 
RCDWRc_limit = 0 
WTRc_limit = 0 
RTWc_limit = 0 
CCDLc_limit = 6 
rwq = 0 
CCDLc_limit_alone = 6 
WTRc_limit_alone = 0 
RTWc_limit_alone = 0 

Commands details: 
total_CMD = 90987 
n_nop = 90978 
Read = 8 
Write = 0 
L2_Alloc = 0 
L2_WB = 0 
n_act = 1 
n_pre = 0 
n_ref = 0 
n_req = 8 
total_req = 8 

Dual Bus Interface Util: 
issued_total_row = 1 
issued_total_col = 8 
Row_Bus_Util =  0.000011 
CoL_Bus_Util = 0.000088 
Either_Row_CoL_Bus_Util = 0.000099 
Issued_on_Two_Bus_Simul_Util = 0.000000 
issued_two_Eff = 0.000000 
queue_avg = 0.000528 


dram_util_bins: 0 0 0 0 0 0 0 0 0 0
dram_eff_bins: 0 0 0 0 0 0 0 0 0 0
mrqq: max=3 avg=0.000527548
Memory Partition 4: 
Cache L2_bank_008:
MSHR contents

Cache L2_bank_009:
MSHR contents

In Dram Latency Queue (total = 0): 
DRAM[4]: 16 bks, busW=4 BL=8 CL=12, tRRD=6 tCCD=2, tRCD=12 tRAS=28 tRP=12 tRC=40
n_cmd=90987 n_nop=90956 n_act=2 n_pre=1 n_ref_event=227392 n_req=28 n_rd=28 n_rd_L2_A=0 n_write=0 n_wr_bk=0 bw_util=0.0006155
n_activity=198 dram_eff=0.2828
bk0: 28a 90913i bk1: 0a 90986i bk2: 0a 90986i bk3: 0a 90986i bk4: 0a 90986i bk5: 0a 90987i bk6: 0a 90987i bk7: 0a 90987i bk8: 0a 90987i bk9: 0a 90987i bk10: 0a 90987i bk11: 0a 90987i bk12: 0a 90987i bk13: 0a 90988i bk14: 0a 90988i bk15: 0a 90988i 

------------------------------------------------------------------------

Row_Buffer_Locality = 0.964286
Row_Buffer_Locality_read = 0.964286
Row_Buffer_Locality_write = -nan
Bank_Level_Parallism = 1.000000
Bank_Level_Parallism_Col = 1.000000
Bank_Level_Parallism_Ready = 1.000000
write_to_read_ratio_blp_rw_average = 0.000000
GrpLevelPara = 1.000000 

BW Util details:
bwutil = 0.000615 
total_CMD = 90987 
util_bw = 56 
Wasted_Col = 43 
Wasted_Row = 12 
Idle = 90876 

BW Util Bottlenecks: 
RCDc_limit = 24 
RCDWRc_limit = 0 
WTRc_limit = 0 
RTWc_limit = 0 
CCDLc_limit = 19 
rwq = 0 
CCDLc_limit_alone = 19 
WTRc_limit_alone = 0 
RTWc_limit_alone = 0 

Commands details: 
total_CMD = 90987 
n_nop = 90956 
Read = 28 
Write = 0 
L2_Alloc = 0 
L2_WB = 0 
n_act = 2 
n_pre = 1 
n_ref = 227392 
n_req = 28 
total_req = 28 

Dual Bus Interface Util: 
issued_total_row = 3 
issued_total_col = 28 
Row_Bus_Util =  0.000033 
CoL_Bus_Util = 0.000308 
Either_Row_CoL_Bus_Util = 0.000341 
Issued_on_Two_Bus_Simul_Util = 0.000000 
issued_two_Eff = 0.000000 
queue_avg = 0.001429 


dram_util_bins: 0 0 0 0 0 0 0 0 0 0
dram_eff_bins: 0 0 0 0 0 0 0 0 0 0
mrqq: max=3 avg=0.00142878
Memory Partition 5: 
Cache L2_bank_010:
MSHR contents

Cache L2_bank_011:
MSHR contents

In Dram Latency Queue (total = 0): 
DRAM[5]: 16 bks, busW=4 BL=8 CL=12, tRRD=6 tCCD=2, tRCD=12 tRAS=28 tRP=12 tRC=40
n_cmd=90987 n_nop=90978 n_act=1 n_pre=0 n_ref_event=0 n_req=8 n_rd=8 n_rd_L2_A=0 n_write=0 n_wr_bk=0 bw_util=0.0001758
n_activity=61 dram_eff=0.2623
bk0: 8a 90963i bk1: 0a 90987i bk2: 0a 90987i bk3: 0a 90987i bk4: 0a 90987i bk5: 0a 90987i bk6: 0a 90987i bk7: 0a 90987i bk8: 0a 90987i bk9: 0a 90987i bk10: 0a 90987i bk11: 0a 90987i bk12: 0a 90987i bk13: 0a 90987i bk14: 0a 90987i bk15: 0a 90987i 

------------------------------------------------------------------------

Row_Buffer_Locality = 0.875000
Row_Buffer_Locality_read = 0.875000
Row_Buffer_Locality_write = -nan
Bank_Level_Parallism = 1.000000
Bank_Level_Parallism_Col = 1.000000
Bank_Level_Parallism_Ready = 1.000000
write_to_read_ratio_blp_rw_average = 0.000000
GrpLevelPara = 0.000000 

BW Util details:
bwutil = 0.000176 
total_CMD = 90987 
util_bw = 16 
Wasted_Col = 18 
Wasted_Row = 0 
Idle = 90953 

BW Util Bottlenecks: 
RCDc_limit = 12 
RCDWRc_limit = 0 
WTRc_limit = 0 
RTWc_limit = 0 
CCDLc_limit = 6 
rwq = 0 
CCDLc_limit_alone = 6 
WTRc_limit_alone = 0 
RTWc_limit_alone = 0 

Commands details: 
total_CMD = 90987 
n_nop = 90978 
Read = 8 
Write = 0 
L2_Alloc = 0 
L2_WB = 0 
n_act = 1 
n_pre = 0 
n_ref = 0 
n_req = 8 
total_req = 8 

Dual Bus Interface Util: 
issued_total_row = 1 
issued_total_col = 8 
Row_Bus_Util =  0.000011 
CoL_Bus_Util = 0.000088 
Either_Row_CoL_Bus_Util = 0.000099 
Issued_on_Two_Bus_Simul_Util = 0.000000 
issued_two_Eff = 0.000000 
queue_avg = 0.000440 


dram_util_bins: 0 0 0 0 0 0 0 0 0 0
dram_eff_bins: 0 0 0 0 0 0 0 0 0 0
mrqq: max=3 avg=0.000439623

========= L2 cache stats =========
L2_cache_bank[0]: Access = 44, Miss = 34, Miss_rate = 0.773, Pending_hits = 0, Reservation_fails = 0
L2_cache_bank[1]: Access = 0, Miss = 0, Miss_rate = -nan, Pending_hits = 0, Reservation_fails = 0
L2_cache_bank[2]: Access = 8, Miss = 8, Miss_rate = 1.000, Pending_hits = 0, Reservation_fails = 0
L2_cache_bank[3]: Access = 0, Miss = 0, Miss_rate = -nan, Pending_hits = 0, Reservation_fails = 0
L2_cache_bank[4]: Access = 8, Miss = 8, Miss_rate = 1.000, Pending_hits = 0, Reservation_fails = 0
L2_cache_bank[5]: Access = 30, Miss = 20, Miss_rate = 0.667, Pending_hits = 0, Reservation_fails = 0
L2_cache_bank[6]: Access = 8, Miss = 8, Miss_rate = 1.000, Pending_hits = 0, Reservation_fails = 0
L2_cache_bank[7]: Access = 0, Miss = 0, Miss_rate = -nan, Pending_hits = 0, Reservation_fails = 0
L2_cache_bank[8]: Access = 38, Miss = 28, Miss_rate = 0.737, Pending_hits = 0, Reservation_fails = 0
L2_cache_bank[9]: Access = 0, Miss = 0, Miss_rate = -nan, Pending_hits = 0, Reservation_fails = 0
L2_cache_bank[10]: Access = 8, Miss = 8, Miss_rate = 1.000, Pending_hits = 0, Reservation_fails = 0
L2_cache_bank[11]: Access = 0, Miss = 0, Miss_rate = -nan, Pending_hits = 0, Reservation_fails = 0
L2_total_cache_accesses = 144
L2_total_cache_misses = 114
L2_total_cache_miss_rate = 0.7917
L2_total_cache_pending_hits = 0
L2_total_cache_reservation_fails = 0
L2_total_cache_breakdown:
	L2_cache_stats_breakdown[GLOBAL_ACC_R][HIT] = 0
	L2_cache_stats_breakdown[GLOBAL_ACC_R][HIT_RESERVED] = 0
	L2_cache_stats_breakdown[GLOBAL_ACC_R][MISS] = 16
	L2_cache_stats_breakdown[GLOBAL_ACC_R][RESERVATION_FAIL] = 0
	L2_cache_stats_breakdown[GLOBAL_ACC_R][SECTOR_MISS] = 48
	L2_cache_stats_breakdown[LOCAL_ACC_R][HIT] = 0
	L2_cache_stats_breakdown[LOCAL_ACC_R][HIT_RESERVED] = 0
	L2_cache_stats_breakdown[LOCAL_ACC_R][MISS] = 0
	L2_cache_stats_breakdown[LOCAL_ACC_R][RESERVATION_FAIL] = 0
	L2_cache_stats_breakdown[LOCAL_ACC_R][SECTOR_MISS] = 0
	L2_cache_stats_breakdown[CONST_ACC_R][HIT] = 0
	L2_cache_stats_breakdown[CONST_ACC_R][HIT_RESERVED] = 0
	L2_cache_stats_breakdown[CONST_ACC_R][MISS] = 1
	L2_cache_stats_breakdown[CONST_ACC_R][RESERVATION_FAIL] = 0
	L2_cache_stats_breakdown[CONST_ACC_R][SECTOR_MISS] = 1
	L2_cache_stats_breakdown[TEXTURE_ACC_R][HIT] = 0
	L2_cache_stats_breakdown[TEXTURE_ACC_R][HIT_RESERVED] = 0
	L2_cache_stats_breakdown[TEXTURE_ACC_R][MISS] = 0
	L2_cache_stats_breakdown[TEXTURE_ACC_R][RESERVATION_FAIL] = 0
	L2_cache_stats_breakdown[TEXTURE_ACC_R][SECTOR_MISS] = 0
	L2_cache_stats_breakdown[GLOBAL_ACC_W][HIT] = 30
	L2_cache_stats_breakdown[GLOBAL_ACC_W][HIT_RESERVED] = 0
	L2_cache_stats_breakdown[GLOBAL_ACC_W][MISS] = 0
	L2_cache_stats_breakdown[GLOBAL_ACC_W][RESERVATION_FAIL] = 0
	L2_cache_stats_breakdown[GLOBAL_ACC_W][SECTOR_MISS] = 0
	L2_cache_stats_breakdown[LOCAL_ACC_W][HIT] = 0
	L2_cache_stats_breakdown[LOCAL_ACC_W][HIT_RESERVED] = 0
	L2_cache_stats_breakdown[LOCAL_ACC_W][MISS] = 0
	L2_cache_stats_breakdown[LOCAL_ACC_W][RESERVATION_FAIL] = 0
	L2_cache_stats_breakdown[LOCAL_ACC_W][SECTOR_MISS] = 0
	L2_cache_stats_breakdown[L1_WRBK_ACC][HIT] = 0
	L2_cache_stats_breakdown[L1_WRBK_ACC][HIT_RESERVED] = 0
	L2_cache_stats_breakdown[L1_WRBK_ACC][MISS] = 0
	L2_cache_stats_breakdown[L1_WRBK_ACC][RESERVATION_FAIL] = 0
	L2_cache_stats_breakdown[L1_WRBK_ACC][SECTOR_MISS] = 0
	L2_cache_stats_breakdown[L2_WRBK_ACC][HIT] = 0
	L2_cache_stats_breakdown[L2_WRBK_ACC][HIT_RESERVED] = 0
	L2_cache_stats_breakdown[L2_WRBK_ACC][MISS] = 0
	L2_cache_stats_breakdown[L2_WRBK_ACC][RESERVATION_FAIL] = 0
	L2_cache_stats_breakdown[L2_WRBK_ACC][SECTOR_MISS] = 0
	L2_cache_stats_breakdown[INST_ACC_R][HIT] = 0
	L2_cache_stats_breakdown[INST_ACC_R][HIT_RESERVED] = 0
	L2_cache_stats_breakdown[INST_ACC_R][MISS] = 12
	L2_cache_stats_breakdown[INST_ACC_R][RESERVATION_FAIL] = 0
	L2_cache_stats_breakdown[INST_ACC_R][SECTOR_MISS] = 36
	L2_cache_stats_breakdown[L1_WR_ALLOC_R][HIT] = 0
	L2_cache_stats_breakdown[L1_WR_ALLOC_R][HIT_RESERVED] = 0
	L2_cache_stats_breakdown[L1_WR_ALLOC_R][MISS] = 0
	L2_cache_stats_breakdown[L1_WR_ALLOC_R][RESERVATION_FAIL] = 0
	L2_cache_stats_breakdown[L1_WR_ALLOC_R][SECTOR_MISS] = 0
	L2_cache_stats_breakdown[L2_WR_ALLOC_R][HIT] = 0
	L2_cache_stats_breakdown[L2_WR_ALLOC_R][HIT_RESERVED] = 0
	L2_cache_stats_breakdown[L2_WR_ALLOC_R][MISS] = 0
	L2_cache_stats_breakdown[L2_WR_ALLOC_R][RESERVATION_FAIL] = 0
	L2_cache_stats_breakdown[L2_WR_ALLOC_R][SECTOR_MISS] = 0
	L2_cache_stats_breakdown[GLOBAL_ACC_R][TOTAL_ACCESS] = 64
	L2_cache_stats_breakdown[CONST_ACC_R][TOTAL_ACCESS] = 2
	L2_cache_stats_breakdown[GLOBAL_ACC_W][TOTAL_ACCESS] = 30
	L2_cache_stats_breakdown[INST_ACC_R][TOTAL_ACCESS] = 48
L2_total_cache_reservation_fail_breakdown:
L2_cache_data_port_util = 0.000
L2_cache_fill_port_util = 0.000

icnt_total_pkts_mem_to_simt=144
icnt_total_pkts_simt_to_mem=59
LD_mem_lat_dist  0 0 0 0 0 0 0 0 0 0 0 0 0 0 0 0 0 0 0 0 0 0 0 0 0 0 0
ST_mem_lat_dist  0 0 0 0 0 0 0 0 0 0 0 0 0 0 0 0 0 0 0 0 0 0 0 0 0 0 0
----------------------------Interconnect-DETAILS--------------------------------
Class 0:
Packet latency average = 5.29787
	minimum = 5
	maximum = 12
Network latency average = 5.07979
	minimum = 5
	maximum = 6
Slowest packet = 139
Flit latency average = 5
	minimum = 5
	maximum = 5
Slowest flit = 0
Fragmentation average = 0
	minimum = 0
	maximum = 0
Injected packet rate average = 0.000235697
	minimum = 0 (at node 1)
	maximum = 0.0014894 (at node 0)
Accepted packet rate average = 0.000235697
	minimum = 0 (at node 1)
	maximum = 0.00487442 (at node 0)
Injected flit rate average = 0.000254503
	minimum = 0 (at node 1)
	maximum = 0.00199716 (at node 0)
Accepted flit rate average= 0.000254503
	minimum = 0 (at node 1)
	maximum = 0.00487442 (at node 0)
Injected packet length average = 1.07979
Accepted packet length average = 1.07979
Total in-flight flits = 0 (0 measured)
====== Overall Traffic Statistics ======
====== Traffic class 0 ======
Packet latency average = 5.29787 (1 samples)
	minimum = 5 (1 samples)
	maximum = 12 (1 samples)
Network latency average = 5.07979 (1 samples)
	minimum = 5 (1 samples)
	maximum = 6 (1 samples)
Flit latency average = 5 (1 samples)
	minimum = 5 (1 samples)
	maximum = 5 (1 samples)
Fragmentation average = 0 (1 samples)
	minimum = 0 (1 samples)
	maximum = 0 (1 samples)
Injected packet rate average = 0.000235697 (1 samples)
	minimum = 0 (1 samples)
	maximum = 0.0014894 (1 samples)
Accepted packet rate average = 0.000235697 (1 samples)
	minimum = 0 (1 samples)
	maximum = 0.00487442 (1 samples)
Injected flit rate average = 0.000254503 (1 samples)
	minimum = 0 (1 samples)
	maximum = 0.00199716 (1 samples)
Accepted flit rate average = 0.000254503 (1 samples)
	minimum = 0 (1 samples)
	maximum = 0.00487442 (1 samples)
Injected packet size average = 1.07979 (1 samples)
Accepted packet size average = 1.07979 (1 samples)
Hops average = 1 (1 samples)
----------------------------END-of-Interconnect-DETAILS-------------------------


gpgpu_simulation_time = 0 days, 0 hrs, 0 min, 3 sec (3 sec)
gpgpu_simulation_rate = 6626 (inst/sec)
gpgpu_simulation_rate = 9847 (cycle/sec)
gpgpu_silicon_slowdown = 30466x
GPGPU-Sim PTX: Setting up arguments for 8 bytes starting at 0x7ffc850327e8..
GPGPU-Sim PTX: Setting up arguments for 4 bytes starting at 0x7ffc850327e4..
GPGPU-Sim PTX: Setting up arguments for 4 bytes starting at 0x7ffc850327e0..

GPGPU-Sim PTX: cudaLaunch for 0x0x564a661a7962 (mode=performance simulation) on stream 0
GPGPU-Sim PTX: finding reconvergence points for '_Z13lud_perimeterPfii'...
GPGPU-Sim PTX: Finding dominators for '_Z13lud_perimeterPfii'...
GPGPU-Sim PTX: Finding immediate dominators for '_Z13lud_perimeterPfii'...
GPGPU-Sim PTX: Finding postdominators for '_Z13lud_perimeterPfii'...
GPGPU-Sim PTX: Finding immediate postdominators for '_Z13lud_perimeterPfii'...
GPGPU-Sim PTX: pre-decoding instructions for '_Z13lud_perimeterPfii'...
GPGPU-Sim PTX: reconvergence points for _Z13lud_perimeterPfii...
GPGPU-Sim PTX:  1 (potential) branch divergence @  PC=0x670 (lud.2.sm_30.ptx:277) @%p3 bra BB1_2;
GPGPU-Sim PTX:    immediate post dominator      @  PC=0xca8 (lud.2.sm_30.ptx:482) mov.u32 %r99, %tid.x;
GPGPU-Sim PTX:  2 (potential) branch divergence @  PC=0x678 (lud.2.sm_30.ptx:278) bra.uni BB1_1;
GPGPU-Sim PTX:    immediate post dominator      @  PC=0xa20 (lud.2.sm_30.ptx:399) add.s32 %r17, %r9, 8;
GPGPU-Sim PTX:  3 (potential) branch divergence @  PC=0xa18 (lud.2.sm_30.ptx:396) bra.uni BB1_3;
GPGPU-Sim PTX:    immediate post dominator      @  PC=0xca8 (lud.2.sm_30.ptx:482) mov.u32 %r99, %tid.x;
GPGPU-Sim PTX:  4 (potential) branch divergence @  PC=0xcc0 (lud.2.sm_30.ptx:485) @%p4 bra BB1_5;
GPGPU-Sim PTX:    immediate post dominator      @  PC=0x2690 (lud.2.sm_30.ptx:1317) bar.sync 0;
GPGPU-Sim PTX:  5 (potential) branch divergence @  PC=0xcc8 (lud.2.sm_30.ptx:486) bra.uni BB1_4;
GPGPU-Sim PTX:    immediate post dominator      @  PC=0x1930 (lud.2.sm_30.ptx:887) mov.u32 %r75, _ZZ13lud_perimeterPfiiE8peri_col;
GPGPU-Sim PTX:  6 (potential) branch divergence @  PC=0x1928 (lud.2.sm_30.ptx:884) bra.uni BB1_6;
GPGPU-Sim PTX:    immediate post dominator      @  PC=0x2690 (lud.2.sm_30.ptx:1317) bar.sync 0;
GPGPU-Sim PTX:  7 (potential) branch divergence @  PC=0x26a8 (lud.2.sm_30.ptx:1320) @%p5 bra BB1_8;
GPGPU-Sim PTX:    immediate post dominator      @  PC=0x2b90 (lud.2.sm_30.ptx:1483) ret;
GPGPU-Sim PTX:  8 (potential) branch divergence @  PC=0x26b0 (lud.2.sm_30.ptx:1321) bra.uni BB1_7;
GPGPU-Sim PTX:    immediate post dominator      @  PC=0x2988 (lud.2.sm_30.ptx:1416) mov.u32 %r85, %tid.x;
GPGPU-Sim PTX:  9 (potential) branch divergence @  PC=0x2980 (lud.2.sm_30.ptx:1413) bra.uni BB1_9;
GPGPU-Sim PTX:    immediate post dominator      @  PC=0x2b90 (lud.2.sm_30.ptx:1483) ret;
GPGPU-Sim PTX: ... end of reconvergence points for _Z13lud_perimeterPfii
GPGPU-Sim PTX: ... done pre-decoding instructions for '_Z13lud_perimeterPfii'.
GPGPU-Sim PTX: pushing kernel '_Z13lud_perimeterPfii' to stream 0, gridDim= (31,1,1) blockDim = (32,1,1) 
GPGPU-Sim uArch: Shader 1 bind to kernel 2 '_Z13lud_perimeterPfii'
GPGPU-Sim uArch: CTA/core = 8, limited by: cta_limit
GPGPU-Sim uArch: Shader 2 bind to kernel 2 '_Z13lud_perimeterPfii'
GPGPU-Sim uArch: Shader 3 bind to kernel 2 '_Z13lud_perimeterPfii'
GPGPU-Sim uArch: Shader 4 bind to kernel 2 '_Z13lud_perimeterPfii'
GPGPU-Sim uArch: Shader 5 bind to kernel 2 '_Z13lud_perimeterPfii'
GPGPU-Sim uArch: Shader 6 bind to kernel 2 '_Z13lud_perimeterPfii'
GPGPU-Sim uArch: Shader 7 bind to kernel 2 '_Z13lud_perimeterPfii'
GPGPU-Sim uArch: Shader 8 bind to kernel 2 '_Z13lud_perimeterPfii'
GPGPU-Sim uArch: Shader 9 bind to kernel 2 '_Z13lud_perimeterPfii'
GPGPU-Sim uArch: Shader 10 bind to kernel 2 '_Z13lud_perimeterPfii'
GPGPU-Sim uArch: Shader 11 bind to kernel 2 '_Z13lud_perimeterPfii'
GPGPU-Sim uArch: Shader 12 bind to kernel 2 '_Z13lud_perimeterPfii'
GPGPU-Sim uArch: Shader 13 bind to kernel 2 '_Z13lud_perimeterPfii'
GPGPU-Sim uArch: Shader 14 bind to kernel 2 '_Z13lud_perimeterPfii'
GPGPU-Sim uArch: Shader 0 bind to kernel 2 '_Z13lud_perimeterPfii'
Destroy streams for kernel 2: size 0
kernel_name = _Z13lud_perimeterPfii 
kernel_launch_uid = 2 
gpu_sim_cycle = 32949
gpu_sim_insn = 610080
gpu_ipc =      18.5159
gpu_tot_sim_cycle = 62491
gpu_tot_sim_insn = 629960
gpu_tot_ipc =      10.0808
gpu_tot_issued_cta = 32
gpu_occupancy = 4.3054% 
gpu_tot_occupancy = 4.1799% 
max_total_param_size = 0
gpu_stall_dramfull = 0
gpu_stall_icnt2sh    = 0
partiton_level_parallism =       0.1020
partiton_level_parallism_total  =       0.0545
partiton_level_parallism_util =       1.1655
partiton_level_parallism_util_total  =       1.1630
L2_BW  =       3.3477 GB/Sec
L2_BW_total  =       1.7872 GB/Sec
gpu_total_sim_rate=78745

========= Core cache stats =========
L1I_cache:
	L1I_total_cache_accesses = 20582
	L1I_total_cache_misses = 2327
	L1I_total_cache_miss_rate = 0.1131
	L1I_total_cache_pending_hits = 0
	L1I_total_cache_reservation_fails = 0
L1D_cache:
	L1D_cache_core[0]: Access = 189, Miss = 96, Miss_rate = 0.508, Pending_hits = 16, Reservation_fails = 0
	L1D_cache_core[1]: Access = 237, Miss = 96, Miss_rate = 0.405, Pending_hits = 16, Reservation_fails = 0
	L1D_cache_core[2]: Access = 158, Miss = 88, Miss_rate = 0.557, Pending_hits = 16, Reservation_fails = 0
	L1D_cache_core[3]: Access = 158, Miss = 88, Miss_rate = 0.557, Pending_hits = 16, Reservation_fails = 0
	L1D_cache_core[4]: Access = 158, Miss = 80, Miss_rate = 0.506, Pending_hits = 16, Reservation_fails = 0
	L1D_cache_core[5]: Access = 158, Miss = 80, Miss_rate = 0.506, Pending_hits = 16, Reservation_fails = 0
	L1D_cache_core[6]: Access = 158, Miss = 80, Miss_rate = 0.506, Pending_hits = 16, Reservation_fails = 0
	L1D_cache_core[7]: Access = 158, Miss = 80, Miss_rate = 0.506, Pending_hits = 16, Reservation_fails = 0
	L1D_cache_core[8]: Access = 158, Miss = 80, Miss_rate = 0.506, Pending_hits = 16, Reservation_fails = 0
	L1D_cache_core[9]: Access = 158, Miss = 80, Miss_rate = 0.506, Pending_hits = 16, Reservation_fails = 0
	L1D_cache_core[10]: Access = 158, Miss = 80, Miss_rate = 0.506, Pending_hits = 16, Reservation_fails = 0
	L1D_cache_core[11]: Access = 158, Miss = 80, Miss_rate = 0.506, Pending_hits = 16, Reservation_fails = 0
	L1D_cache_core[12]: Access = 158, Miss = 80, Miss_rate = 0.506, Pending_hits = 16, Reservation_fails = 0
	L1D_cache_core[13]: Access = 158, Miss = 80, Miss_rate = 0.506, Pending_hits = 16, Reservation_fails = 0
	L1D_cache_core[14]: Access = 158, Miss = 80, Miss_rate = 0.506, Pending_hits = 16, Reservation_fails = 0
	L1D_total_cache_accesses = 2480
	L1D_total_cache_misses = 1248
	L1D_total_cache_miss_rate = 0.5032
	L1D_total_cache_pending_hits = 240
	L1D_total_cache_reservation_fails = 0
	L1D_cache_data_port_util = 0.002
	L1D_cache_fill_port_util = 0.002
L1C_cache:
	L1C_total_cache_accesses = 285
	L1C_total_cache_misses = 90
	L1C_total_cache_miss_rate = 0.3158
	L1C_total_cache_pending_hits = 0
	L1C_total_cache_reservation_fails = 0
L1T_cache:
	L1T_total_cache_accesses = 0
	L1T_total_cache_misses = 0
	L1T_total_cache_pending_hits = 0
	L1T_total_cache_reservation_fails = 0

Total_core_cache_stats:
	Total_core_cache_stats_breakdown[GLOBAL_ACC_R][HIT] = 32
	Total_core_cache_stats_breakdown[GLOBAL_ACC_R][HIT_RESERVED] = 240
	Total_core_cache_stats_breakdown[GLOBAL_ACC_R][MISS] = 1232
	Total_core_cache_stats_breakdown[GLOBAL_ACC_R][RESERVATION_FAIL] = 0
	Total_core_cache_stats_breakdown[GLOBAL_ACC_R][SECTOR_MISS] = 0
	Total_core_cache_stats_breakdown[LOCAL_ACC_R][HIT] = 0
	Total_core_cache_stats_breakdown[LOCAL_ACC_R][HIT_RESERVED] = 0
	Total_core_cache_stats_breakdown[LOCAL_ACC_R][MISS] = 0
	Total_core_cache_stats_breakdown[LOCAL_ACC_R][RESERVATION_FAIL] = 0
	Total_core_cache_stats_breakdown[LOCAL_ACC_R][SECTOR_MISS] = 0
	Total_core_cache_stats_breakdown[CONST_ACC_R][HIT] = 195
	Total_core_cache_stats_breakdown[CONST_ACC_R][HIT_RESERVED] = 0
	Total_core_cache_stats_breakdown[CONST_ACC_R][MISS] = 90
	Total_core_cache_stats_breakdown[CONST_ACC_R][RESERVATION_FAIL] = 0
	Total_core_cache_stats_breakdown[CONST_ACC_R][SECTOR_MISS] = 0
	Total_core_cache_stats_breakdown[TEXTURE_ACC_R][HIT] = 0
	Total_core_cache_stats_breakdown[TEXTURE_ACC_R][HIT_RESERVED] = 0
	Total_core_cache_stats_breakdown[TEXTURE_ACC_R][MISS] = 0
	Total_core_cache_stats_breakdown[TEXTURE_ACC_R][RESERVATION_FAIL] = 0
	Total_core_cache_stats_breakdown[TEXTURE_ACC_R][SECTOR_MISS] = 0
	Total_core_cache_stats_breakdown[GLOBAL_ACC_W][HIT] = 960
	Total_core_cache_stats_breakdown[GLOBAL_ACC_W][HIT_RESERVED] = 0
	Total_core_cache_stats_breakdown[GLOBAL_ACC_W][MISS] = 16
	Total_core_cache_stats_breakdown[GLOBAL_ACC_W][RESERVATION_FAIL] = 0
	Total_core_cache_stats_breakdown[GLOBAL_ACC_W][SECTOR_MISS] = 0
	Total_core_cache_stats_breakdown[LOCAL_ACC_W][HIT] = 0
	Total_core_cache_stats_breakdown[LOCAL_ACC_W][HIT_RESERVED] = 0
	Total_core_cache_stats_breakdown[LOCAL_ACC_W][MISS] = 0
	Total_core_cache_stats_breakdown[LOCAL_ACC_W][RESERVATION_FAIL] = 0
	Total_core_cache_stats_breakdown[LOCAL_ACC_W][SECTOR_MISS] = 0
	Total_core_cache_stats_breakdown[L1_WRBK_ACC][HIT] = 0
	Total_core_cache_stats_breakdown[L1_WRBK_ACC][HIT_RESERVED] = 0
	Total_core_cache_stats_breakdown[L1_WRBK_ACC][MISS] = 0
	Total_core_cache_stats_breakdown[L1_WRBK_ACC][RESERVATION_FAIL] = 0
	Total_core_cache_stats_breakdown[L1_WRBK_ACC][SECTOR_MISS] = 0
	Total_core_cache_stats_breakdown[L2_WRBK_ACC][HIT] = 0
	Total_core_cache_stats_breakdown[L2_WRBK_ACC][HIT_RESERVED] = 0
	Total_core_cache_stats_breakdown[L2_WRBK_ACC][MISS] = 0
	Total_core_cache_stats_breakdown[L2_WRBK_ACC][RESERVATION_FAIL] = 0
	Total_core_cache_stats_breakdown[L2_WRBK_ACC][SECTOR_MISS] = 0
	Total_core_cache_stats_breakdown[INST_ACC_R][HIT] = 18255
	Total_core_cache_stats_breakdown[INST_ACC_R][HIT_RESERVED] = 0
	Total_core_cache_stats_breakdown[INST_ACC_R][MISS] = 2327
	Total_core_cache_stats_breakdown[INST_ACC_R][RESERVATION_FAIL] = 0
	Total_core_cache_stats_breakdown[INST_ACC_R][SECTOR_MISS] = 0
	Total_core_cache_stats_breakdown[L1_WR_ALLOC_R][HIT] = 0
	Total_core_cache_stats_breakdown[L1_WR_ALLOC_R][HIT_RESERVED] = 0
	Total_core_cache_stats_breakdown[L1_WR_ALLOC_R][MISS] = 0
	Total_core_cache_stats_breakdown[L1_WR_ALLOC_R][RESERVATION_FAIL] = 0
	Total_core_cache_stats_breakdown[L1_WR_ALLOC_R][SECTOR_MISS] = 0
	Total_core_cache_stats_breakdown[L2_WR_ALLOC_R][HIT] = 0
	Total_core_cache_stats_breakdown[L2_WR_ALLOC_R][HIT_RESERVED] = 0
	Total_core_cache_stats_breakdown[L2_WR_ALLOC_R][MISS] = 0
	Total_core_cache_stats_breakdown[L2_WR_ALLOC_R][RESERVATION_FAIL] = 0
	Total_core_cache_stats_breakdown[L2_WR_ALLOC_R][SECTOR_MISS] = 0
	Total_core_cache_stats_breakdown[GLOBAL_ACC_R][TOTAL_ACCESS] = 1504
	Total_core_cache_stats_breakdown[CONST_ACC_R][TOTAL_ACCESS] = 285
	Total_core_cache_stats_breakdown[GLOBAL_ACC_W][TOTAL_ACCESS] = 976
	Total_core_cache_stats_breakdown[INST_ACC_R][TOTAL_ACCESS] = 20582

Total_core_cache_fail_stats:
ctas_completed 32, Shader 0 warp_id issue ditsribution:
warp_id:
0, 1, 
distro:
4155, 1206, 
gpgpu_n_tot_thrd_icount = 1290720
gpgpu_n_tot_w_icount = 40335
gpgpu_n_stall_shd_mem = 7448
gpgpu_n_mem_read_local = 0
gpgpu_n_mem_write_local = 0
gpgpu_n_mem_read_global = 1232
gpgpu_n_mem_write_global = 976
gpgpu_n_mem_texture = 0
gpgpu_n_mem_const = 15
gpgpu_n_load_insn  = 24064
gpgpu_n_store_insn = 15616
gpgpu_n_shmem_insn = 202104
gpgpu_n_sstarr_insn = 0
gpgpu_n_tex_insn = 0
gpgpu_n_const_mem_insn = 0
gpgpu_n_param_mem_insn = 6048
gpgpu_n_shmem_bkconflict = 0
gpgpu_n_cache_bkconflict = 0
gpgpu_n_intrawarp_mshr_merge = 0
gpgpu_n_cmem_portconflict = 0
gpgpu_stall_shd_mem[c_mem][resource_stall] = 0
gpgpu_stall_shd_mem[s_mem][bk_conf] = 7448
gpgpu_stall_shd_mem[gl_mem][resource_stall] = 0
gpgpu_stall_shd_mem[gl_mem][coal_stall] = 0
gpgpu_stall_shd_mem[gl_mem][data_port_stall] = 0
gpu_reg_bank_conflict_stalls = 0
Warp Occupancy Distribution:
Stall:9108	W0_Idle:517303	W0_Scoreboard:480026	W1:316	W2:296	W3:276	W4:256	W5:236	W6:216	W7:196	W8:176	W9:156	W10:136	W11:116	W12:96	W13:76	W14:56	W15:34	W16:36860	W17:0	W18:0	W19:0	W20:0	W21:0	W22:0	W23:0	W24:0	W25:0	W26:0	W27:0	W28:0	W29:0	W30:0	W31:0	W32:837
single_issue_nums: WS0:22245	WS1:18090	
dual_issue_nums: WS0:0	WS1:0	
traffic_breakdown_coretomem[CONST_ACC_R] = 120 {8:15,}
traffic_breakdown_coretomem[GLOBAL_ACC_R] = 9856 {8:1232,}
traffic_breakdown_coretomem[GLOBAL_ACC_W] = 70272 {72:976,}
traffic_breakdown_coretomem[INST_ACC_R] = 9448 {8:1181,}
traffic_breakdown_memtocore[CONST_ACC_R] = 1200 {40:30,}
traffic_breakdown_memtocore[GLOBAL_ACC_R] = 197120 {40:4928,}
traffic_breakdown_memtocore[GLOBAL_ACC_W] = 15616 {8:1952,}
traffic_breakdown_memtocore[INST_ACC_R] = 188960 {40:4724,}
maxmflatency = 257 
max_icnt2mem_latency = 126 
maxmrqlatency = 18 
max_icnt2sh_latency = 24 
averagemflatency = 180 
avg_icnt2mem_latency = 18 
avg_mrq_latency = 2 
avg_icnt2sh_latency = 7 
mrq_lat_table:1938 	68 	206 	397 	3 	0 	0 	0 	0 	0 	0 	0 	0 	0 	0 	0 	0 	0 	0 	0 	0 	0 	0 	0 	0 	0 	0 	0 	0 	0 	0 	0 	
dq_lat_table:0 	0 	0 	0 	0 	0 	0 	0 	0 	0 	0 	0 	0 	0 	0 	0 	0 	0 	0 	0 	0 	0 	0 	0 	0 	0 	0 	0 	0 	0 	0 	0 	
mf_lat_table:0 	0 	0 	0 	0 	0 	1208 	5700 	2 	0 	0 	0 	0 	0 	0 	0 	0 	0 	0 	0 	0 	0 	0 	0 	0 	0 	0 	0 	0 	0 	0 	0 	
icnt2mem_lat_table:0 	0 	1109 	66 	20 	1935 	274 	0 	0 	0 	0 	0 	0 	0 	0 	0 	0 	0 	0 	0 	0 	0 	0 	0 	
icnt2sh_lat_table:0 	0 	6394 	417 	99 	0 	0 	0 	0 	0 	0 	0 	0 	0 	0 	0 	0 	0 	0 	0 	0 	0 	0 	0 	
mf_lat_pw_table:0 	0 	0 	0 	0 	0 	3 	46 	0 	0 	0 	0 	0 	0 	0 	0 	0 	0 	0 	0 	0 	0 	0 	0 	0 	0 	0 	0 	0 	0 	0 	0 	
maximum concurrent accesses to same row:
dram[0]:        92        88        24         0        29         0        34         0        32         0        32         0         4         0         8         0 
dram[1]:        88        88         0         0         0         0         0         0         0         0         0         0         0         0         0         0 
dram[2]:        88        68         0        28         0        32         0        34         0         0         0        32         0         4         0         8 
[...]
dram[4]:        961       833       942       907       809       935       821       930       823       911       933       941       936       825       958       837
dram[5]:        904       846       978       953       979      1040       976      1037       970      1004       998       924       955       867       969       861
Memory Partition 0: 
Cache L2_bank_000:
MSHR contents

Cache L2_bank_001:
MSHR contents

In Dram Latency Queue (total = 0): 
DRAM[0]: 16 bks, busW=4 BL=8 CL=12, tRRD=6 tCCD=2, tRCD=12 tRAS=28 tRP=12 tRC=40
n_cmd=6760180 n_nop=6705531 n_act=2377 n_pre=2361 n_ref_event=94877550480976 n_req=42869 n_rd=35194 n_rd_L2_A=0 n_write=0 n_wr_bk=14753 bw_util=0.01478
n_activity=266849 dram_eff=0.3743
bk0: 2132a 6742619i bk1: 2748a 6738564i bk2: 1830a 6745517i bk3: 2280a 6742495i bk4: 2232a 6741020i bk5: 2792a 6737335i bk6: 2066a 6742257i bk7: 2620a 6740014i bk8: 2268a 6738785i bk9: 3072a 6735484i bk10: 1696a 6745550i bk11: 2224a 6741658i bk12: 1608a 6745814i bk13: 2224a 6742155i bk14: 1450a 6749179i bk15: 1952a 6746405i 

------------------------------------------------------------------------

Row_Buffer_Locality = 0.944809
Row_Buffer_Locality_read = 0.972779
Row_Buffer_Locality_write = 0.816547
Bank_Level_Parallism = 1.600363
Bank_Level_Parallism_Col = 0.677647
Bank_Level_Parallism_Ready = 1.073533
write_to_read_ratio_blp_rw_average = 0.000000
GrpLevelPara = 0.000000 

BW Util details:
bwutil = 0.014777 
total_CMD = 6760180 
util_bw = 99894 
Wasted_Col = 90848 
Wasted_Row = 21646 
Idle = 6547792 

BW Util Bottlenecks: 
RCDc_limit = 10631 
RCDWRc_limit = 8201 
WTRc_limit = 12118 
RTWc_limit = 65434 
CCDLc_limit = 47792 
rwq = 0 
CCDLc_limit_alone = 28169 
WTRc_limit_alone = 9812 
RTWc_limit_alone = 48117 

Commands details: 
total_CMD = 6760180 
n_nop = 6705531 
Read = 35194 
Write = 0 
L2_Alloc = 0 
L2_WB = 14753 
n_act = 2377 
n_pre = 2361 
n_ref = 94877550480976 
n_req = 42869 
total_req = 49947 

Dual Bus Interface Util: 
issued_total_row = 4738 
issued_total_col = 49947 
Row_Bus_Util =  0.000701 
CoL_Bus_Util = 0.007388 
Either_Row_CoL_Bus_Util = 0.008084 
Issued_on_Two_Bus_Simul_Util = 0.000005 
issued_two_Eff = 0.000659 
queue_avg = 0.091874 


dram_util_bins: 0 0 0 0 0 0 0 0 0 0
dram_eff_bins: 0 0 0 0 0 0 0 0 0 0
mrqq: max=64 avg=0.091874
Memory Partition 1: 
Cache L2_bank_002:
MSHR contents

Cache L2_bank_003:
MSHR contents

In Dram Latency Queue (total = 0): 
DRAM[1]: 16 bks, busW=4 BL=8 CL=12, tRRD=6 tCCD=2, tRCD=12 tRAS=28 tRP=12 tRC=40
n_cmd=6760180 n_nop=6700129 n_act=2129 n_pre=2113 n_ref_event=94877551327344 n_req=47463 n_rd=38876 n_rd_L2_A=0 n_write=0 n_wr_bk=16960 bw_util=0.01652
n_activity=284711 dram_eff=0.3922
bk0: 2492a 6739925i bk1: 2840a 6737970i bk2: 2138a 6743355i bk3: 2296a 6742933i bk4: 2598a 6737770i bk5: 2848a 6737122i bk6: 2500a 6739613i bk7: 2644a 6739118i bk8: 2994a 6733514i bk9: 3128a 6733675i bk10: 2188a 6741070i bk11: 2232a 6741275i bk12: 1976a 6742367i bk13: 2264a 6741231i bk14: 1786a 6746616i bk15: 1952a 6745840i 

------------------------------------------------------------------------

Row_Buffer_Locality = 0.955439
Row_Buffer_Locality_read = 0.977930
Row_Buffer_Locality_write = 0.853616
Bank_Level_Parallism = 1.651540
Bank_Level_Parallism_Col = 1.654044
Bank_Level_Parallism_Ready = 1.082138
write_to_read_ratio_blp_rw_average = 0.583500
GrpLevelPara = 1.270300 

BW Util details:
bwutil = 0.016519 
total_CMD = 6760180 
util_bw = 111672 
Wasted_Col = 97250 
Wasted_Row = 19746 
Idle = 6531512 

BW Util Bottlenecks: 
RCDc_limit = 9288 
RCDWRc_limit = 7175 
WTRc_limit = 13851 
RTWc_limit = 74064 
CCDLc_limit = 52398 
rwq = 0 
CCDLc_limit_alone = 30486 
WTRc_limit_alone = 11180 
RTWc_limit_alone = 54823 

Commands details: 
total_CMD = 6760180 
n_nop = 6700129 
Read = 38876 
Write = 0 
L2_Alloc = 0 
L2_WB = 16960 
n_act = 2129 
n_pre = 2113 
n_ref = 94877551327344 
n_req = 47463 
total_req = 55836 

Dual Bus Interface Util: 
issued_total_row = 4242 
issued_total_col = 55836 
Row_Bus_Util =  0.000627 
CoL_Bus_Util = 0.008260 
Either_Row_CoL_Bus_Util = 0.008883 
Issued_on_Two_Bus_Simul_Util = 0.000004 
issued_two_Eff = 0.000450 
queue_avg = 0.103852 


dram_util_bins: 0 0 0 0 0 0 0 0 0 0
dram_eff_bins: 0 0 0 0 0 0 0 0 0 0
mrqq: max=64 avg=0.103852
Memory Partition 2: 
Cache L2_bank_004:
MSHR contents

Cache L2_bank_005:
MSHR contents

In Dram Latency Queue (total = 0): 
DRAM[2]: 16 bks, busW=4 BL=8 CL=12, tRRD=6 tCCD=2, tRCD=12 tRAS=28 tRP=12 tRC=40
n_cmd=6760180 n_nop=6705457 n_act=2394 n_pre=2378 n_ref_event=0 n_req=42910 n_rd=35222 n_rd_L2_A=0 n_write=0 n_wr_bk=14773 bw_util=0.01479
n_activity=267823 dram_eff=0.3733
bk0: 2774a 6739086i bk1: 2136a 6742793i bk2: 2296a 6742466i bk3: 1812a 6745562i bk4: 2808a 6737001i bk5: 2222a 6740708i bk6: 2640a 6739230i bk7: 2040a 6742069i bk8: 3082a 6735124i bk9: 2266a 6738922i bk10: 2308a 6741493i bk11: 1608a 6745370i bk12: 2228a 6742218i bk13: 1602a 6746517i bk14: 1984a 6746234i bk15: 1416a 6749533i 

------------------------------------------------------------------------

Row_Buffer_Locality = 0.944535
Row_Buffer_Locality_read = 0.972262
Row_Buffer_Locality_write = 0.817508
Bank_Level_Parallism = 1.600673
Bank_Level_Parallism_Col = 0.984834
Bank_Level_Parallism_Ready = 1.079441
write_to_read_ratio_blp_rw_average = 0.000000
GrpLevelPara = 0.000000 

BW Util details:
bwutil = 0.014791 
total_CMD = 6760180 
util_bw = 99990 
Wasted_Col = 90300 
Wasted_Row = 22523 
Idle = 6547367 

BW Util Bottlenecks: 
RCDc_limit = 10739 
RCDWRc_limit = 8122 
WTRc_limit = 11238 
RTWc_limit = 65116 
CCDLc_limit = 47283 
rwq = 0 
CCDLc_limit_alone = 27930 
WTRc_limit_alone = 9085 
RTWc_limit_alone = 47916 

Commands details: 
total_CMD = 6760180 
n_nop = 6705457 
Read = 35222 
Write = 0 
L2_Alloc = 0 
L2_WB = 14773 
n_act = 2394 
n_pre = 2378 
n_ref = 0 
n_req = 42910 
total_req = 49995 

Dual Bus Interface Util: 
issued_total_row = 4772 
issued_total_col = 49995 
Row_Bus_Util =  0.000706 
CoL_Bus_Util = 0.007396 
Either_Row_CoL_Bus_Util = 0.008095 
Issued_on_Two_Bus_Simul_Util = 0.000007 
issued_two_Eff = 0.000804 
queue_avg = 0.090030 


dram_util_bins: 0 0 0 0 0 0 0 0 0 0
dram_eff_bins: 0 0 0 0 0 0 0 0 0 0
mrqq: max=64 avg=0.0900299
Memory Partition 3: 
Cache L2_bank_006:
MSHR contents

Cache L2_bank_007:
MSHR contents

In Dram Latency Queue (total = 0): 
DRAM[3]: 16 bks, busW=4 BL=8 CL=12, tRRD=6 tCCD=2, tRCD=12 tRAS=28 tRP=12 tRC=40
n_cmd=6760180 n_nop=6700169 n_act=2088 n_pre=2072 n_ref_event=0 n_req=47496 n_rd=38906 n_rd_L2_A=0 n_write=0 n_wr_bk=16967 bw_util=0.01653
n_activity=284555 dram_eff=0.3927
bk0: 2840a 6738434i bk1: 2488a 6740424i bk2: 2320a 6742481i bk3: 2114a 6743190i bk4: 2852a 6736323i bk5: 2616a 6737787i bk6: 2668a 6738559i bk7: 2472a 6740145i bk8: 3128a 6733792i bk9: 3006a 6733398i bk10: 2320a 6741727i bk11: 2100a 6741386i bk12: 2264a 6741498i bk13: 1980a 6743210i bk14: 1984a 6745912i bk15: 1754a 6746672i 

------------------------------------------------------------------------

Row_Buffer_Locality = 0.956354
Row_Buffer_Locality_read = 0.978307
Row_Buffer_Locality_write = 0.856927
Bank_Level_Parallism = 1.647457
Bank_Level_Parallism_Col = 1.652242
Bank_Level_Parallism_Ready = 1.083855
write_to_read_ratio_blp_rw_average = 0.587096
GrpLevelPara = 1.265024 

BW Util details:
bwutil = 0.016530 
total_CMD = 6760180 
util_bw = 111746 
Wasted_Col = 96670 
Wasted_Row = 19979 
Idle = 6531785 

BW Util Bottlenecks: 
RCDc_limit = 9274 
RCDWRc_limit = 6995 
WTRc_limit = 13497 
RTWc_limit = 73107 
CCDLc_limit = 51706 
rwq = 0 
CCDLc_limit_alone = 30185 
WTRc_limit_alone = 11007 
RTWc_limit_alone = 54076 

Commands details: 
total_CMD = 6760180 
n_nop = 6700169 
Read = 38906 
Write = 0 
L2_Alloc = 0 
L2_WB = 16967 
n_act = 2088 
n_pre = 2072 
n_ref = 0 
n_req = 47496 
total_req = 55873 

Dual Bus Interface Util: 
issued_total_row = 4160 
issued_total_col = 55873 
Row_Bus_Util =  0.000615 
CoL_Bus_Util = 0.008265 
Either_Row_CoL_Bus_Util = 0.008877 
Issued_on_Two_Bus_Simul_Util = 0.000003 
issued_two_Eff = 0.000367 
queue_avg = 0.101052 


dram_util_bins: 0 0 0 0 0 0 0 0 0 0
dram_eff_bins: 0 0 0 0 0 0 0 0 0 0
mrqq: max=64 avg=0.101052
Memory Partition 4: 
Cache L2_bank_008:
MSHR contents

Cache L2_bank_009:
MSHR contents

In Dram Latency Queue (total = 0): 
DRAM[4]: 16 bks, busW=4 BL=8 CL=12, tRRD=6 tCCD=2, tRCD=12 tRAS=28 tRP=12 tRC=40
n_cmd=6760180 n_nop=6705832 n_act=2324 n_pre=2308 n_ref_event=227392 n_req=42696 n_rd=35040 n_rd_L2_A=0 n_write=0 n_wr_bk=14712 bw_util=0.01472
n_activity=263987 dram_eff=0.3769
bk0: 2112a 6742979i bk1: 2718a 6739203i bk2: 1844a 6745093i bk3: 2272a 6741765i bk4: 2204a 6741484i bk5: 2800a 6736360i bk6: 2054a 6743304i bk7: 2612a 6739221i bk8: 2236a 6739203i bk9: 3078a 6734805i bk10: 1668a 6745688i bk11: 2220a 6742271i bk12: 1596a 6745574i bk13: 2224a 6741953i bk14: 1450a 6749232i bk15: 1952a 6746730i 

------------------------------------------------------------------------

Row_Buffer_Locality = 0.945920
Row_Buffer_Locality_read = 0.973545
Row_Buffer_Locality_write = 0.819488
Bank_Level_Parallism = 1.617954
Bank_Level_Parallism_Col = 1.616863
Bank_Level_Parallism_Ready = 1.076244
write_to_read_ratio_blp_rw_average = 0.573290
GrpLevelPara = 1.246660 

BW Util details:
bwutil = 0.014719 
total_CMD = 6760180 
util_bw = 99504 
Wasted_Col = 89332 
Wasted_Row = 21255 
Idle = 6550089 

BW Util Bottlenecks: 
RCDc_limit = 10280 
RCDWRc_limit = 7995 
WTRc_limit = 12081 
RTWc_limit = 65130 
CCDLc_limit = 46672 
rwq = 0 
CCDLc_limit_alone = 27420 
WTRc_limit_alone = 9838 
RTWc_limit_alone = 48121 

Commands details: 
total_CMD = 6760180 
n_nop = 6705832 
Read = 35040 
Write = 0 
L2_Alloc = 0 
L2_WB = 14712 
n_act = 2324 
n_pre = 2308 
n_ref = 227392 
n_req = 42696 
total_req = 49752 

Dual Bus Interface Util: 
issued_total_row = 4632 
issued_total_col = 49752 
Row_Bus_Util =  0.000685 
CoL_Bus_Util = 0.007360 
Either_Row_CoL_Bus_Util = 0.008039 
Issued_on_Two_Bus_Simul_Util = 0.000005 
issued_two_Eff = 0.000662 
queue_avg = 0.090248 


dram_util_bins: 0 0 0 0 0 0 0 0 0 0
dram_eff_bins: 0 0 0 0 0 0 0 0 0 0
mrqq: max=64 avg=0.0902477
Memory Partition 5: 
Cache L2_bank_010:
MSHR contents

Cache L2_bank_011:
MSHR contents

In Dram Latency Queue (total = 0): 
DRAM[5]: 16 bks, busW=4 BL=8 CL=12, tRRD=6 tCCD=2, tRCD=12 tRAS=28 tRP=12 tRC=40
n_cmd=6760180 n_nop=6700711 n_act=2060 n_pre=2044 n_ref_event=0 n_req=47078 n_rd=38552 n_rd_L2_A=0 n_write=0 n_wr_bk=16848 bw_util=0.01639
n_activity=283162 dram_eff=0.3913
bk0: 2488a 6740240i bk1: 2728a 6738623i bk2: 2132a 6743920i bk3: 2296a 6742662i bk4: 2590a 6738164i bk5: 2820a 6737027i bk6: 2500a 6740336i bk7: 2648a 6738870i bk8: 2972a 6734103i bk9: 3104a 6734085i bk10: 2098a 6741910i bk11: 2232a 6741569i bk12: 1970a 6743135i bk13: 2240a 6741371i bk14: 1782a 6746955i bk15: 1952a 6745996i 

------------------------------------------------------------------------

Row_Buffer_Locality = 0.956561
Row_Buffer_Locality_read = 0.978704
Row_Buffer_Locality_write = 0.856439
Bank_Level_Parallism = 1.637389
Bank_Level_Parallism_Col = 1.000000
Bank_Level_Parallism_Ready = 1.079396
write_to_read_ratio_blp_rw_average = 0.000000
GrpLevelPara = 0.000000 

BW Util details:
bwutil = 0.016390 
total_CMD = 6760180 
util_bw = 110800 
Wasted_Col = 96905 
Wasted_Row = 19410 
Idle = 6533065 

BW Util Bottlenecks: 
RCDc_limit = 8896 
RCDWRc_limit = 7022 
WTRc_limit = 13372 
RTWc_limit = 73885 
CCDLc_limit = 52176 
rwq = 0 
CCDLc_limit_alone = 30253 
WTRc_limit_alone = 10845 
RTWc_limit_alone = 54489 

Commands details: 
total_CMD = 6760180 
n_nop = 6700711 
Read = 38552 
Write = 0 
L2_Alloc = 0 
L2_WB = 16848 
n_act = 2060 
n_pre = 2044 
n_ref = 0 
n_req = 47078 
total_req = 55400 

Dual Bus Interface Util: 
issued_total_row = 4104 
issued_total_col = 55400 
Row_Bus_Util =  0.000607 
CoL_Bus_Util = 0.008195 
Either_Row_CoL_Bus_Util = 0.008797 
Issued_on_Two_Bus_Simul_Util = 0.000005 
issued_two_Eff = 0.000589 
queue_avg = 0.099728 


dram_util_bins: 0 0 0 0 0 0 0 0 0 0
dram_eff_bins: 0 0 0 0 0 0 0 0 0 0
mrqq: max=64 avg=0.0997275

========= L2 cache stats =========
L2_cache_bank[0]: Access = 159022, Miss = 16142, Miss_rate = 0.102, Pending_hits = 6848, Reservation_fails = 18292
L2_cache_bank[1]: Access = 191680, Miss = 19928, Miss_rate = 0.104, Pending_hits = 7097, Reservation_fails = 20567
L2_cache_bank[2]: Access = 174360, Miss = 18980, Miss_rate = 0.109, Pending_hits = 7427, Reservation_fails = 18504
L2_cache_bank[3]: Access = 200652, Miss = 20204, Miss_rate = 0.101, Pending_hits = 7948, Reservation_fails = 25401
L2_cache_bank[4]: Access = 189492, Miss = 20128, Miss_rate = 0.106, Pending_hits = 6941, Reservation_fails = 17776
L2_cache_bank[5]: Access = 159556, Miss = 15958, Miss_rate = 0.100, Pending_hits = 6977, Reservation_fails = 21757
L2_cache_bank[6]: Access = 198652, Miss = 20376, Miss_rate = 0.103, Pending_hits = 7624, Reservation_fails = 18172
L2_cache_bank[7]: Access = 176440, Miss = 18832, Miss_rate = 0.107, Pending_hits = 7497, Reservation_fails = 20027
L2_cache_bank[8]: Access = 157080, Miss = 16038, Miss_rate = 0.102, Pending_hits = 6778, Reservation_fails = 15724
L2_cache_bank[9]: Access = 190144, Miss = 19884, Miss_rate = 0.105, Pending_hits = 7013, Reservation_fails = 20993
L2_cache_bank[10]: Access = 175372, Miss = 18846, Miss_rate = 0.107, Pending_hits = 7240, Reservation_fails = 16629
L2_cache_bank[11]: Access = 197708, Miss = 20020, Miss_rate = 0.101, Pending_hits = 7510, Reservation_fails = 18350
L2_total_cache_accesses = 2170158
L2_total_cache_misses = 225336
L2_total_cache_miss_rate = 0.1038
L2_total_cache_pending_hits = 86900
L2_total_cache_reservation_fails = 232192
L2_total_cache_breakdown:
	L2_cache_stats_breakdown[GLOBAL_ACC_R][HIT] = 1386792
	L2_cache_stats_breakdown[GLOBAL_ACC_R][HIT_RESERVED] = 79096
	L2_cache_stats_breakdown[GLOBAL_ACC_R][MISS] = 54022
	L2_cache_stats_breakdown[GLOBAL_ACC_R][RESERVATION_FAIL] = 20697
	L2_cache_stats_breakdown[GLOBAL_ACC_R][SECTOR_MISS] = 164174
	L2_cache_stats_breakdown[LOCAL_ACC_R][HIT] = 0
	L2_cache_stats_breakdown[LOCAL_ACC_R][HIT_RESERVED] = 0
	L2_cache_stats_breakdown[LOCAL_ACC_R][MISS] = 0
	L2_cache_stats_breakdown[LOCAL_ACC_R][RESERVATION_FAIL] = 0
	L2_cache_stats_breakdown[LOCAL_ACC_R][SECTOR_MISS] = 0
	L2_cache_stats_breakdown[CONST_ACC_R][HIT] = 28
	L2_cache_stats_breakdown[CONST_ACC_R][HIT_RESERVED] = 0
	L2_cache_stats_breakdown[CONST_ACC_R][MISS] = 1
	L2_cache_stats_breakdown[CONST_ACC_R][RESERVATION_FAIL] = 0
	L2_cache_stats_breakdown[CONST_ACC_R][SECTOR_MISS] = 1
	L2_cache_stats_breakdown[TEXTURE_ACC_R][HIT] = 0
	L2_cache_stats_breakdown[TEXTURE_ACC_R][HIT_RESERVED] = 0
	L2_cache_stats_breakdown[TEXTURE_ACC_R][MISS] = 0
	L2_cache_stats_breakdown[TEXTURE_ACC_R][RESERVATION_FAIL] = 0
	L2_cache_stats_breakdown[TEXTURE_ACC_R][SECTOR_MISS] = 0
	L2_cache_stats_breakdown[GLOBAL_ACC_W][HIT] = 361478
	L2_cache_stats_breakdown[GLOBAL_ACC_W][HIT_RESERVED] = 0
	L2_cache_stats_breakdown[GLOBAL_ACC_W][MISS] = 1773
	L2_cache_stats_breakdown[GLOBAL_ACC_W][RESERVATION_FAIL] = 0
	L2_cache_stats_breakdown[GLOBAL_ACC_W][SECTOR_MISS] = 1773
	L2_cache_stats_breakdown[LOCAL_ACC_W][HIT] = 0
	L2_cache_stats_breakdown[LOCAL_ACC_W][HIT_RESERVED] = 0
	L2_cache_stats_breakdown[LOCAL_ACC_W][MISS] = 0
	L2_cache_stats_breakdown[LOCAL_ACC_W][RESERVATION_FAIL] = 0
	L2_cache_stats_breakdown[LOCAL_ACC_W][SECTOR_MISS] = 0
	L2_cache_stats_breakdown[L1_WRBK_ACC][HIT] = 0
	L2_cache_stats_breakdown[L1_WRBK_ACC][HIT_RESERVED] = 0
	L2_cache_stats_breakdown[L1_WRBK_ACC][MISS] = 0
	L2_cache_stats_breakdown[L1_WRBK_ACC][RESERVATION_FAIL] = 0
	L2_cache_stats_breakdown[L1_WRBK_ACC][SECTOR_MISS] = 0
	L2_cache_stats_breakdown[L2_WRBK_ACC][HIT] = 0
	L2_cache_stats_breakdown[L2_WRBK_ACC][HIT_RESERVED] = 0
	L2_cache_stats_breakdown[L2_WRBK_ACC][MISS] = 0
	L2_cache_stats_breakdown[L2_WRBK_ACC][RESERVATION_FAIL] = 0
	L2_cache_stats_breakdown[L2_WRBK_ACC][SECTOR_MISS] = 0
	L2_cache_stats_breakdown[INST_ACC_R][HIT] = 109624
	L2_cache_stats_breakdown[INST_ACC_R][HIT_RESERVED] = 7804
	L2_cache_stats_breakdown[INST_ACC_R][MISS] = 898
	L2_cache_stats_breakdown[INST_ACC_R][RESERVATION_FAIL] = 211495
	L2_cache_stats_breakdown[INST_ACC_R][SECTOR_MISS] = 2694
	L2_cache_stats_breakdown[L1_WR_ALLOC_R][HIT] = 0
	L2_cache_stats_breakdown[L1_WR_ALLOC_R][HIT_RESERVED] = 0
	L2_cache_stats_breakdown[L1_WR_ALLOC_R][MISS] = 0
	L2_cache_stats_breakdown[L1_WR_ALLOC_R][RESERVATION_FAIL] = 0
	L2_cache_stats_breakdown[L1_WR_ALLOC_R][SECTOR_MISS] = 0
	L2_cache_stats_breakdown[L2_WR_ALLOC_R][HIT] = 0
	L2_cache_stats_breakdown[L2_WR_ALLOC_R][HIT_RESERVED] = 0
	L2_cache_stats_breakdown[L2_WR_ALLOC_R][MISS] = 0
	L2_cache_stats_breakdown[L2_WR_ALLOC_R][RESERVATION_FAIL] = 0
	L2_cache_stats_breakdown[L2_WR_ALLOC_R][SECTOR_MISS] = 0
	L2_cache_stats_breakdown[GLOBAL_ACC_R][TOTAL_ACCESS] = 1684084
	L2_cache_stats_breakdown[CONST_ACC_R][TOTAL_ACCESS] = 30
	L2_cache_stats_breakdown[GLOBAL_ACC_W][TOTAL_ACCESS] = 365024
	L2_cache_stats_breakdown[INST_ACC_R][TOTAL_ACCESS] = 121020
L2_total_cache_reservation_fail_breakdown:
	L2_cache_stats_fail_breakdown[GLOBAL_ACC_R][MISS_QUEUE_FULL] = 382
	L2_cache_stats_fail_breakdown[GLOBAL_ACC_R][MSHR_MERGE_ENRTY_FAIL] = 20315
	L2_cache_stats_fail_breakdown[INST_ACC_R][MSHR_MERGE_ENRTY_FAIL] = 211495
L2_cache_data_port_util = 0.021
L2_cache_fill_port_util = 0.003

icnt_total_pkts_mem_to_simt=2170158
icnt_total_pkts_simt_to_mem=816315
LD_mem_lat_dist  0 0 0 0 0 0 0 0 0 0 0 0 0 0 0 0 0 0 0 0 0 0 0 0 0 0 0
ST_mem_lat_dist  0 0 0 0 0 0 0 0 0 0 0 0 0 0 0 0 0 0 0 0 0 0 0 0 0 0 0
----------------------------Interconnect-DETAILS--------------------------------
Class 0:
Packet latency average = 5.35484
	minimum = 5
	maximum = 12
Network latency average = 5.09677
	minimum = 5
	maximum = 6
Slowest packet = 2803912
Flit latency average = 5
	minimum = 5
	maximum = 5
Slowest flit = 2986303
Fragmentation average = 0
	minimum = 0
	maximum = 0
Injected packet rate average = 0.000224134
	minimum = 0 (at node 0)
	maximum = 0.00148362 (at node 21)
Accepted packet rate average = 0.000224134
	minimum = 0 (at node 0)
	maximum = 0.00460704 (at node 3)
Injected flit rate average = 0.000245824
	minimum = 0 (at node 0)
	maximum = 0.00203022 (at node 3)
Accepted flit rate average= 0.000245824
	minimum = 0 (at node 0)
	maximum = 0.00460704 (at node 3)
Injected packet length average = 1.09677
Accepted packet length average = 1.09677
Total in-flight flits = 0 (0 measured)
====== Overall Traffic Statistics ======
====== Traffic class 0 ======
Packet latency average = 22.6781 (94 samples)
	minimum = 5 (94 samples)
	maximum = 273.372 (94 samples)
Network latency average = 21.393 (94 samples)
	minimum = 5 (94 samples)
	maximum = 271.032 (94 samples)
Flit latency average = 20.5519 (94 samples)
	minimum = 5 (94 samples)
	maximum = 270.543 (94 samples)
Fragmentation average = 0.00268596 (94 samples)
	minimum = 0 (94 samples)
	maximum = 57.9043 (94 samples)
Injected packet rate average = 0.0588078 (94 samples)
	minimum = 0.0171946 (94 samples)
	maximum = 0.171375 (94 samples)
Accepted packet rate average = 0.0588078 (94 samples)
	minimum = 0.0170271 (94 samples)
	maximum = 0.0983433 (94 samples)
Injected flit rate average = 0.0625772 (94 samples)
	minimum = 0.0222963 (94 samples)
	maximum = 0.171635 (94 samples)
Accepted flit rate average = 0.0625772 (94 samples)
	minimum = 0.0227306 (94 samples)
	maximum = 0.0983765 (94 samples)
Injected packet size average = 1.0641 (94 samples)
Accepted packet size average = 1.0641 (94 samples)
Hops average = 1 (94 samples)
----------------------------END-of-Interconnect-DETAILS-------------------------


gpgpu_simulation_time = 0 days, 0 hrs, 11 min, 16 sec (676 sec)
gpgpu_simulation_rate = 382221 (inst/sec)
gpgpu_simulation_rate = 3246 (cycle/sec)
gpgpu_silicon_slowdown = 92421x
Time consumed(ms): 676826.112000
After LUD
>>>Verify<<<<
GPGPU-Sim: *** exit detected ***
